71226662
  -OEChem-05142003503D

 58 62  0     1  0  0  0  0  0999 V2000
    4.3925    1.3137   -2.0231 O   0  0  0  0  0  0  0  0  0  0  0  0
   -4.7459    0.5825    2.0680 O   0  0  0  0  0  0  0  0  0  0  0  0
    4.7915    1.2000    0.2597 N   0  0  0  0  0  0  0  0  0  0  0  0
    3.0032   -2.0401   -0.2447 N   0  0  0  0  0  0  0  0  0  0  0  0
    2.1621   -0.1352    0.5227 N   0  0  0  0  0  0  0  0  0  0  0  0
    1.8597   -4.4079   -1.1301 N   0  0  0  0  0  0  0  0  0  0  0  0
   -0.3044   -3.6571   -0.7713 N   0  0  0  0  0  0  0  0  0  0  0  0
   -5.0983    0.4052   -0.2451 N   0  0  0  0  0  0  0  0  0  0  0  0
   -7.0282    0.6721   -1.6110 N   0  0  0  0  0  0  0  0  0  0  0  0
    4.6807   -0.2562    0.3961 C   0  0  1  0  0  0  0  0  0  0  0  0
    5.2583   -0.5392    1.7892 C   0  0  0  0  0  0  0  0  0  0  0  0
    4.9662    0.7378    2.5711 C   0  0  0  0  0  0  0  0  0  0  0  0
    5.1452    1.8312    1.5291 C   0  0  0  0  0  0  0  0  0  0  0  0
    3.2688   -0.7880    0.2337 C   0  0  0  0  0  0  0  0  0  0  0  0
    1.6377   -2.1928   -0.2615 C   0  0  0  0  0  0  0  0  0  0  0  0
    4.6900    1.8497   -0.9607 C   0  0  0  0  0  0  0  0  0  0  0  0
    1.1401   -1.0037    0.2166 C   0  0  0  0  0  0  0  0  0  0  0  0
    3.8194   -3.0677   -0.6694 C   0  0  0  0  0  0  0  0  0  0  0  0
    1.0546   -3.4415   -0.7292 C   0  0  0  0  0  0  0  0  0  0  0  0
   -0.2371   -0.6589    0.3936 C   0  0  0  0  0  0  0  0  0  0  0  0
    3.2294   -4.1995   -1.0911 C   0  0  0  0  0  0  0  0  0  0  0  0
    4.9563    3.2707   -0.9767 C   0  0  0  0  0  0  0  0  0  0  0  0
   -0.9438   -0.0521   -0.6447 C   0  0  0  0  0  0  0  0  0  0  0  0
   -0.8730   -0.9286    1.6056 C   0  0  0  0  0  0  0  0  0  0  0  0
   -2.2862    0.2846   -0.4713 C   0  0  0  0  0  0  0  0  0  0  0  0
   -2.2153   -0.5920    1.7791 C   0  0  0  0  0  0  0  0  0  0  0  0
   -2.9220    0.0147    0.7405 C   0  0  0  0  0  0  0  0  0  0  0  0
    5.1774    4.4507   -0.9899 C   0  0  0  0  0  0  0  0  0  0  0  0
   -4.3217    0.3654    0.9214 C   0  0  0  0  0  0  0  0  0  0  0  0
    5.4468    5.8877   -1.0060 C   0  0  0  0  0  0  0  0  0  0  0  0
   -6.4800    0.6891   -0.3754 C   0  0  0  0  0  0  0  0  0  0  0  0
   -7.1869    0.9685    0.7831 C   0  0  0  0  0  0  0  0  0  0  0  0
   -8.5438    1.2481    0.6658 C   0  0  0  0  0  0  0  0  0  0  0  0
   -8.3494    0.9487   -1.6857 C   0  0  0  0  0  0  0  0  0  0  0  0
   -9.1439    1.2400   -0.5885 C   0  0  0  0  0  0  0  0  0  0  0  0
    5.3193   -0.6980   -0.3779 H   0  0  0  0  0  0  0  0  0  0  0  0
    4.8453   -1.4303    2.2718 H   0  0  0  0  0  0  0  0  0  0  0  0
    6.3456   -0.6685    1.7149 H   0  0  0  0  0  0  0  0  0  0  0  0
    3.9291    0.7249    2.9270 H   0  0  0  0  0  0  0  0  0  0  0  0
    5.6220    0.8692    3.4360 H   0  0  0  0  0  0  0  0  0  0  0  0
    4.5134    2.7036    1.7194 H   0  0  0  0  0  0  0  0  0  0  0  0
    6.1904    2.1533    1.4648 H   0  0  0  0  0  0  0  0  0  0  0  0
    4.8932   -2.9385   -0.6477 H   0  0  0  0  0  0  0  0  0  0  0  0
    3.8360   -5.0319   -1.4314 H   0  0  0  0  0  0  0  0  0  0  0  0
   -0.4597    0.1725   -1.5923 H   0  0  0  0  0  0  0  0  0  0  0  0
   -0.3363   -1.4020    2.4245 H   0  0  0  0  0  0  0  0  0  0  0  0
   -0.9822   -2.9632   -0.4805 H   0  0  0  0  0  0  0  0  0  0  0  0
   -0.6745   -4.5413   -1.1038 H   0  0  0  0  0  0  0  0  0  0  0  0
   -2.7822    0.7898   -1.2945 H   0  0  0  0  0  0  0  0  0  0  0  0
   -2.6924   -0.8161    2.7296 H   0  0  0  0  0  0  0  0  0  0  0  0
    5.4932    6.2862    0.0120 H   0  0  0  0  0  0  0  0  0  0  0  0
    6.4013    6.0993   -1.4972 H   0  0  0  0  0  0  0  0  0  0  0  0
    4.6610    6.4251   -1.5453 H   0  0  0  0  0  0  0  0  0  0  0  0
   -4.6689    0.1682   -1.1344 H   0  0  0  0  0  0  0  0  0  0  0  0
   -6.7940    0.9936    1.7858 H   0  0  0  0  0  0  0  0  0  0  0  0
   -9.1343    1.4721    1.5493 H   0  0  0  0  0  0  0  0  0  0  0  0
   -8.7692    0.9297   -2.6860 H   0  0  0  0  0  0  0  0  0  0  0  0
  -10.2000    1.4550   -0.7036 H   0  0  0  0  0  0  0  0  0  0  0  0
  1 16  2  0  0  0  0
  2 29  2  0  0  0  0
  3 10  1  0  0  0  0
  3 13  1  0  0  0  0
  3 16  1  0  0  0  0
  4 14  1  0  0  0  0
  4 15  1  0  0  0  0
  4 18  1  0  0  0  0
  5 14  2  0  0  0  0
  5 17  1  0  0  0  0
  6 19  2  0  0  0  0
  6 21  1  0  0  0  0
  7 19  1  0  0  0  0
  7 47  1  0  0  0  0
  7 48  1  0  0  0  0
  8 29  1  0  0  0  0
  8 31  1  0  0  0  0
  8 54  1  0  0  0  0
  9 31  1  0  0  0  0
  9 34  2  0  0  0  0
 10 11  1  0  0  0  0
 10 14  1  0  0  0  0
 10 36  1  0  0  0  0
 11 12  1  0  0  0  0
 11 37  1  0  0  0  0
 11 38  1  0  0  0  0
 12 13  1  0  0  0  0
 12 39  1  0  0  0  0
 12 40  1  0  0  0  0
 13 41  1  0  0  0  0
 13 42  1  0  0  0  0
 15 17  2  0  0  0  0
 15 19  1  0  0  0  0
 16 22  1  0  0  0  0
 17 20  1  0  0  0  0
 18 21  2  0  0  0  0
 18 43  1  0  0  0  0
 20 23  2  0  0  0  0
 20 24  1  0  0  0  0
 21 44  1  0  0  0  0
 22 28  3  0  0  0  0
 23 25  1  0  0  0  0
 23 45  1  0  0  0  0
 24 26  2  0  0  0  0
 24 46  1  0  0  0  0
 25 27  2  0  0  0  0
 25 49  1  0  0  0  0
 26 27  1  0  0  0  0
 26 50  1  0  0  0  0
 27 29  1  0  0  0  0
 28 30  1  0  0  0  0
 30 51  1  0  0  0  0
 30 52  1  0  0  0  0
 30 53  1  0  0  0  0
 31 32  2  0  0  0  0
 32 33  1  0  0  0  0
 32 55  1  0  0  0  0
 33 35  2  0  0  0  0
 33 56  1  0  0  0  0
 34 35  1  0  0  0  0
 34 57  1  0  0  0  0
 35 58  1  0  0  0  0
M  END
> <PUBCHEM_COMPOUND_CID>
71226662

> <PUBCHEM_CONFORMER_RMSD>
1

> <PUBCHEM_CONFORMER_DIVERSEORDER>
1
18
17
10
20
11
19
23
27
9
5
22
12
24
2
25
13
3
8
16
26
14
21
15
4
7
6

> <PUBCHEM_MMFF94_PARTIAL_CHARGES>
46
1 -0.57
10 0.48
13 0.3
14 0.01
15 -0.24
16 0.74
17 0.17
18 -0.18
19 0.58
2 -0.57
20 0.05
21 0.02
22 -0.1
23 -0.15
24 -0.15
25 -0.15
26 -0.15
27 0.09
28 -0.2
29 0.54
3 -0.66
30 0.2
31 0.43
32 -0.15
33 -0.15
34 0.16
35 -0.15
4 0.33
43 0.15
44 0.15
45 0.15
46 0.15
47 0.4
48 0.4
49 0.15
5 -0.57
50 0.15
54 0.37
55 0.15
56 0.15
57 0.15
58 0.15
6 -0.62
7 -0.85
8 -0.55
9 -0.62

> <PUBCHEM_EFFECTIVE_ROTOR_COUNT>
7

> <PUBCHEM_PHARMACOPHORE_FEATURES>
13
1 1 acceptor
1 2 acceptor
1 30 hydrophobe
1 7 donor
1 8 donor
1 9 acceptor
3 4 5 14 cation
3 6 7 19 cation
5 3 10 11 12 13 rings
5 4 5 14 15 17 rings
6 20 23 24 25 26 27 rings
6 4 6 15 18 19 21 rings
6 9 31 32 33 34 35 rings

> <PUBCHEM_HEAVY_ATOM_COUNT>
35

> <PUBCHEM_ATOM_DEF_STEREO_COUNT>
1

> <PUBCHEM_ATOM_UDEF_STEREO_COUNT>
0

> <PUBCHEM_BOND_DEF_STEREO_COUNT>
0

> <PUBCHEM_BOND_UDEF_STEREO_COUNT>
0

> <PUBCHEM_ISOTOPIC_ATOM_COUNT>
0

> <PUBCHEM_COMPONENT_COUNT>
1

> <PUBCHEM_CACTVS_TAUTO_COUNT>
6

> <PUBCHEM_CONFORMER_ID>
043ED52600000001

> <PUBCHEM_MMFF94_ENERGY>
97.2032

> <PUBCHEM_FEATURE_SELFOVERLAP>
66.072

> <PUBCHEM_SHAPE_FINGERPRINT>
10411042 1 17624701150973337998
10673678 19 18337680818259168652
10952577 141 17535771894889369908
11135609 127 18408317800714584549
11505856 67 17399806389749677404
11607047 74 16629947873098026538
12788726 201 17549259685493953534
13533116 47 17988639628430803867
14117953 113 18412548708942584228
15082195 135 18339089206839230972
15198563 99 17117769583977639334
15419008 91 17821725023672007181
16096371 109 18335143059459547826
1979834 28 18408042901190268788
20157964 124 18342173328370599827
21583282 1 18059847377078700597
21792964 463 18057908882508757505
23516275 100 18040149643595800005
23522609 53 17631474293155603705
23559900 14 18336843991564286754
23569943 247 10231490592554117493
23729417 116 17188702943949874238
249057 25 17631739236370330979
255183 451 17842004286600270006
27425 322 18114179760971029267
3044373 193 18186801344486368923
34797466 226 18335702694462756219
3534868 343 17987525809670554192
397830 11 18114194072587406603
4073 2 18341891897140465339
44880568 143 18188486849575087621
45270241 37 18271529694207880375
45377200 153 14835826453422367805
49967989 163 16056594409616112119
504579 68 17845940641316757631
5109719 28 18114472214569593337
57527293 21 17603860156954640546
9849439 229 18271238439205540672
9962374 69 18129090130955515071

> <PUBCHEM_SHAPE_MULTIPOLES>
673.68
22.62
5.37
1.83
56.52
1.93
-0.64
22.52
2.5
-14.79
3.87
-0.73
0.34
-0.58

> <PUBCHEM_SHAPE_SELFOVERLAP>
1482.401

> <PUBCHEM_SHAPE_VOLUME>
359.1

> <PUBCHEM_COORDINATE_TYPE>
2
5
10

$$$$
