166548
 OpenBabel05112018423D

155161  0  0  1  0  0  0  0  0999 V2000
   26.0647  -12.9382   42.4072 O   0  0  0  0  0  0  0  0  0  0  0  0
   30.8386  -11.2654   40.9374 O   0  0  0  0  0  0  0  0  0  0  0  0
   29.2937  -13.6110   44.9821 O   0  0  0  0  0  0  0  0  0  0  0  0
   25.7068  -10.4454   37.7325 O   0  0  0  0  0  0  0  0  0  0  0  0
   27.3727  -12.8398   38.0576 O   0  0  0  0  0  0  0  0  0  0  0  0
   25.6011  -13.8019   47.1832 O   0  0  0  0  0  0  0  0  0  0  0  0
   24.7916  -14.8117   44.1759 O   0  0  0  0  0  0  0  0  0  0  0  0
   29.2030   -8.8142   41.6646 O   0  0  0  0  0  0  0  0  0  0  0  0
   24.0010  -11.4654   39.5264 O   0  0  0  0  0  0  0  0  0  0  0  0
   29.6212   -6.2286   37.1355 O   0  0  0  0  0  0  0  0  0  0  0  0
   30.4152   -8.9665   36.1208 O   0  0  0  0  0  0  0  0  0  0  0  0
   24.3518  -14.8006   40.8061 O   0  0  0  0  0  0  0  0  0  0  0  0
   27.1478   -6.0687   39.0034 O   0  0  0  0  0  0  0  0  0  0  0  0
   20.4465  -11.6029   42.9516 O   0  0  0  0  0  0  0  0  0  0  0  0
   19.4620  -15.0175   44.1105 O   0  0  0  0  0  0  0  0  0  0  0  0
   27.1463   -0.7688   37.3599 O   0  0  0  0  0  0  0  0  0  0  0  0
   10.5118  -13.7820   54.5938 O   0  0  0  0  0  0  0  0  0  0  0  0
   29.3023  -12.9297   41.3201 N   0  0  0  0  0  0  0  0  0  0  0  0
   25.7621  -10.6580   41.1755 N   0  0  0  0  0  0  0  0  0  0  0  0
   27.1290  -13.4894   45.3324 N   0  0  0  0  0  0  0  0  0  0  0  0
   30.3422  -10.4734   37.8306 N   0  0  0  0  0  0  0  0  0  0  0  0
   29.0356   -8.2038   39.4758 N   0  0  0  0  0  0  0  0  0  0  0  0
   22.4046  -11.8709   42.0144 N   0  0  0  0  0  0  0  0  0  0  0  0
   21.2919  -14.0038   44.7156 N   0  0  0  0  0  0  0  0  0  0  0  0
   27.4712  -14.0599   40.7070 C   0  0  2  0  0  0  0  0  0  0  0  0
   27.1671  -13.7706   42.1951 C   0  0  1  0  0  0  0  0  0  0  0  0
   28.3161  -12.8683   42.7135 C   0  0  1  0  0  0  0  0  0  0  0  0
   28.9647  -14.1385   40.6581 C   0  0  0  0  0  0  0  0  0  0  0  0
   26.8904  -15.0260   39.6942 C   0  0  0  0  0  0  0  0  0  0  0  0
   29.8980  -11.9139   40.4442 C   0  0  0  0  0  0  0  0  0  0  0  0
   28.2142  -13.3540   44.4167 C   0  0  0  0  0  0  0  0  0  0  0  0
   29.4709  -11.4294   38.7100 C   0  0  2  0  0  0  0  0  0  0  0  0
   26.6862   -9.1223   40.9429 C   0  0  1  0  0  0  0  0  0  0  0  0
   26.4989   -8.9340   39.4927 C   0  0  0  0  0  0  0  0  0  0  0  0
   25.7282  -10.0586   39.0760 C   0  0  2  0  0  0  0  0  0  0  0  0
   26.3359  -11.1521   40.0466 C   0  0  0  0  0  0  0  0  0  0  0  0
   28.3356  -11.9038   37.6448 C   0  0  1  0  0  0  0  0  0  0  0  0
   25.6622  -13.2518   45.8360 C   0  0  1  0  0  0  0  0  0  0  0  0
   28.8090   -8.3546   37.9032 C   0  0  2  0  0  0  0  0  0  0  0  0
   28.4307   -8.7058   40.7060 C   0  0  0  0  0  0  0  0  0  0  0  0
   24.4291  -11.4635   40.7069 C   0  0  0  0  0  0  0  0  0  0  0  0
   24.3853  -13.8777   45.1595 C   0  0  1  0  0  0  0  0  0  0  0  0
   29.9848   -9.2528   37.2492 C   0  0  0  0  0  0  0  0  0  0  0  0
   23.6240  -12.5443   41.5567 C   0  0  2  0  0  0  0  0  0  0  0  0
   28.4444   -7.0457   37.1086 C   0  0  1  0  0  0  0  0  0  0  0  0
   23.5226  -12.6868   44.6965 C   0  0  0  0  0  0  0  0  0  0  0  0
   28.5226  -12.1783   36.1457 C   0  0  0  0  0  0  0  0  0  0  0  0
   21.9867  -12.7315   44.4455 C   0  0  1  0  0  0  0  0  0  0  0  0
   23.2312  -13.9179   40.8546 C   0  0  1  0  0  0  0  0  0  0  0  0
   27.1172   -6.2827   37.5765 C   0  0  2  0  0  0  0  0  0  0  0  0
   21.5918  -12.0521   43.0889 C   0  0  0  0  0  0  0  0  0  0  0  0
   22.4998  -13.9482   39.5169 C   0  0  0  0  0  0  0  0  0  0  0  0
   26.9447   -4.8688   37.0279 C   0  0  0  0  0  0  0  0  0  0  0  0
   19.8820  -14.2144   44.9504 C   0  0  0  0  0  0  0  0  0  0  0  0
   25.7804   -4.1172   36.7177 C   0  0  0  0  0  0  0  0  0  0  0  0
   28.1292   -4.1766   37.1526 C   0  0  0  0  0  0  0  0  0  0  0  0
   19.1107  -13.8289   46.1190 C   0  0  0  0  0  0  0  0  0  0  0  0
   25.8880   -2.7101   36.6816 C   0  0  0  0  0  0  0  0  0  0  0  0
   28.0432   -2.9039   37.7288 C   0  0  0  0  0  0  0  0  0  0  0  0
   27.0211   -2.1084   37.2648 C   0  0  0  0  0  0  0  0  0  0  0  0
   17.8330  -14.3924   46.2506 C   0  0  0  0  0  0  0  0  0  0  0  0
   19.5770  -13.1759   47.2434 C   0  0  0  0  0  0  0  0  0  0  0  0
   17.0831  -14.3112   47.4528 C   0  0  0  0  0  0  0  0  0  0  0  0
   18.9119  -13.3039   48.4782 C   0  0  0  0  0  0  0  0  0  0  0  0
   17.5709  -13.6523   48.5846 C   0  0  0  0  0  0  0  0  0  0  0  0
   16.8331  -13.5183   49.8583 C   0  0  0  0  0  0  0  0  0  0  0  0
   15.6293  -14.1606   50.0156 C   0  0  0  0  0  0  0  0  0  0  0  0
   17.2209  -12.7394   50.9651 C   0  0  0  0  0  0  0  0  0  0  0  0
   15.2477  -14.5267   51.2948 C   0  0  0  0  0  0  0  0  0  0  0  0
   16.7134  -12.9981   52.2705 C   0  0  0  0  0  0  0  0  0  0  0  0
   15.4919  -13.6449   52.3562 C   0  0  0  0  0  0  0  0  0  0  0  0
   14.2890  -13.2060   53.1065 C   0  0  0  0  0  0  0  0  0  0  0  0
   14.0541  -12.6479   54.3680 C   0  0  0  0  0  0  0  0  0  0  0  0
   13.1154  -13.3437   52.3858 C   0  0  0  0  0  0  0  0  0  0  0  0
   12.7019  -12.6442   54.8663 C   0  0  0  0  0  0  0  0  0  0  0  0
   12.1599  -14.0411   53.0599 C   0  0  0  0  0  0  0  0  0  0  0  0
   11.7221  -13.3655   54.1653 C   0  0  0  0  0  0  0  0  0  0  0  0
    9.3294  -11.5994   53.8632 C   0  0  0  0  0  0  0  0  0  0  0  0
    9.4563  -12.8421   54.7575 C   0  0  0  0  0  0  0  0  0  0  0  0
    9.0366  -11.7955   52.3650 C   0  0  0  0  0  0  0  0  0  0  0  0
    8.8390  -10.4129   51.7105 C   0  0  0  0  0  0  0  0  0  0  0  0
    8.6330  -10.4527   50.2041 C   0  0  0  0  0  0  0  0  0  0  0  0
   27.1603  -13.1460   40.2649 H   0  0  0  0  0  0  0  0  0  0  0  0
   27.0207  -14.6985   42.7526 H   0  0  0  0  0  0  0  0  0  0  0  0
   28.1103  -11.7929   42.7902 H   0  0  0  0  0  0  0  0  0  0  0  0
   29.3321  -14.9827   41.2525 H   0  0  0  0  0  0  0  0  0  0  0  0
   29.3985  -14.1842   39.6579 H   0  0  0  0  0  0  0  0  0  0  0  0
   25.9355  -14.6723   39.2940 H   0  0  0  0  0  0  0  0  0  0  0  0
   27.5290  -15.0085   38.7959 H   0  0  0  0  0  0  0  0  0  0  0  0
   26.8473  -16.0629   40.0076 H   0  0  0  0  0  0  0  0  0  0  0  0
   28.9187  -10.6186   39.1623 H   0  0  0  0  0  0  0  0  0  0  0  0
   26.5284   -8.5367   41.8590 H   0  0  0  0  0  0  0  0  0  0  0  0
   26.1548  -12.4634   43.2562 H   0  0  0  0  0  0  0  0  0  0  0  0
   26.2303   -7.9966   39.0676 H   0  0  0  0  0  0  0  0  0  0  0  0
   27.3728   -9.3503   39.0676 H   0  0  0  0  0  0  0  0  0  0  0  0
   24.7434   -9.6274   39.2969 H   0  0  0  0  0  0  0  0  0  0  0  0
   27.2158  -11.5042   39.5532 H   0  0  0  0  0  0  0  0  0  0  0  0
   27.2503  -11.0243   40.6846 H   0  0  0  0  0  0  0  0  0  0  0  0
   27.5920  -13.7273   46.2076 H   0  0  0  0  0  0  0  0  0  0  0  0
   27.7921  -10.9667   37.5310 H   0  0  0  0  0  0  0  0  0  0  0  0
   30.9368  -10.9607   37.1681 H   0  0  0  0  0  0  0  0  0  0  0  0
   25.5566  -12.1831   46.0237 H   0  0  0  0  0  0  0  0  0  0  0  0
   27.9464   -8.9423   37.6122 H   0  0  0  0  0  0  0  0  0  0  0  0
   23.7696  -14.4581   45.8665 H   0  0  0  0  0  0  0  0  0  0  0  0
   24.1630  -12.9419   42.3669 H   0  0  0  0  0  0  0  0  0  0  0  0
   30.0199   -7.9922   39.6404 H   0  0  0  0  0  0  0  0  0  0  0  0
   28.2512   -7.2889   36.0501 H   0  0  0  0  0  0  0  0  0  0  0  0
   24.0542  -12.2202   43.8864 H   0  0  0  0  0  0  0  0  0  0  0  0
   23.6260  -11.8817   45.4315 H   0  0  0  0  0  0  0  0  0  0  0  0
   28.5900  -11.2502   35.5624 H   0  0  0  0  0  0  0  0  0  0  0  0
   29.3681  -12.8208   35.9193 H   0  0  0  0  0  0  0  0  0  0  0  0
   27.6169  -12.6759   35.7517 H   0  0  0  0  0  0  0  0  0  0  0  0
   21.5640  -12.0343   45.1839 H   0  0  0  0  0  0  0  0  0  0  0  0
   22.5554  -14.4225   41.5611 H   0  0  0  0  0  0  0  0  0  0  0  0
   24.9006  -11.0095   37.7251 H   0  0  0  0  0  0  0  0  0  0  0  0
   21.9074  -11.4056   41.2620 H   0  0  0  0  0  0  0  0  0  0  0  0
   26.2124   -6.8554   37.3408 H   0  0  0  0  0  0  0  0  0  0  0  0
   26.5013  -12.4122   37.9093 H   0  0  0  0  0  0  0  0  0  0  0  0
   24.6903  -13.6960   47.5528 H   0  0  0  0  0  0  0  0  0  0  0  0
   25.5527  -15.2979   44.5654 H   0  0  0  0  0  0  0  0  0  0  0  0
   21.4901  -14.3425   39.6842 H   0  0  0  0  0  0  0  0  0  0  0  0
   22.3635  -12.9711   39.0609 H   0  0  0  0  0  0  0  0  0  0  0  0
   22.9843  -14.6138   38.7886 H   0  0  0  0  0  0  0  0  0  0  0  0
   21.5272  -14.6726   43.9894 H   0  0  0  0  0  0  0  0  0  0  0  0
   30.0379   -6.3303   36.2556 H   0  0  0  0  0  0  0  0  0  0  0  0
   24.1189  -15.5994   40.3016 H   0  0  0  0  0  0  0  0  0  0  0  0
   28.0710   -5.8277   39.2106 H   0  0  0  0  0  0  0  0  0  0  0  0
   24.8397   -4.6316   36.4828 H   0  0  0  0  0  0  0  0  0  0  0  0
   28.6100   -4.0743   36.1706 H   0  0  0  0  0  0  0  0  0  0  0  0
   25.0969   -2.0907   36.2744 H   0  0  0  0  0  0  0  0  0  0  0  0
   28.8191   -2.5662   38.3934 H   0  0  0  0  0  0  0  0  0  0  0  0
   17.3883  -14.9339   45.4182 H   0  0  0  0  0  0  0  0  0  0  0  0
   20.4006  -12.4817   47.1825 H   0  0  0  0  0  0  0  0  0  0  0  0
   16.1539  -14.8770   47.5098 H   0  0  0  0  0  0  0  0  0  0  0  0
   19.5529  -13.6282   49.3126 H   0  0  0  0  0  0  0  0  0  0  0  0
   28.0776   -0.6198   37.6130 H   0  0  0  0  0  0  0  0  0  0  0  0
   14.8232  -13.6710   49.4213 H   0  0  0  0  0  0  0  0  0  0  0  0
   17.3177  -11.6659   50.7367 H   0  0  0  0  0  0  0  0  0  0  0  0
   14.5547  -15.3532   51.4094 H   0  0  0  0  0  0  0  0  0  0  0  0
   17.4617  -13.7073   52.7283 H   0  0  0  0  0  0  0  0  0  0  0  0
   14.8510  -12.2605   54.9991 H   0  0  0  0  0  0  0  0  0  0  0  0
   12.7574  -12.3637   52.0125 H   0  0  0  0  0  0  0  0  0  0  0  0
   12.4746  -12.1907   55.8266 H   0  0  0  0  0  0  0  0  0  0  0  0
   12.3858  -15.0997   53.2774 H   0  0  0  0  0  0  0  0  0  0  0  0
    8.4942  -11.0156   54.2760 H   0  0  0  0  0  0  0  0  0  0  0  0
   10.2258  -10.9813   53.9681 H   0  0  0  0  0  0  0  0  0  0  0  0
    8.5296  -13.4216   54.6525 H   0  0  0  0  0  0  0  0  0  0  0  0
    9.4970  -12.5211   55.8027 H   0  0  0  0  0  0  0  0  0  0  0  0
    9.8556  -12.3293   51.8738 H   0  0  0  0  0  0  0  0  0  0  0  0
    8.1250  -12.3909   52.2270 H   0  0  0  0  0  0  0  0  0  0  0  0
    7.9691   -9.9220   52.1649 H   0  0  0  0  0  0  0  0  0  0  0  0
    9.7071   -9.7770   51.9226 H   0  0  0  0  0  0  0  0  0  0  0  0
    7.8713  -11.1820   49.9153 H   0  0  0  0  0  0  0  0  0  0  0  0
    8.3068   -9.4674   49.8488 H   0  0  0  0  0  0  0  0  0  0  0  0
    9.5666  -10.6945   49.6867 H   0  0  0  0  0  0  0  0  0  0  0  0
  1 93  1  0  0  0  0
  2 30  2  0  0  0  0
  3 31  2  0  0  0  0
  4115  1  0  0  0  0
  5118  1  0  0  0  0
  6119  1  0  0  0  0
  7120  1  0  0  0  0
  8 40  2  0  0  0  0
  9 41  2  0  0  0  0
 10125  1  0  0  0  0
 11 43  2  0  0  0  0
 12126  1  0  0  0  0
 13127  1  0  0  0  0
 14 51  2  0  0  0  0
 15 54  2  0  0  0  0
 16 60  1  0  0  0  0
 16136  1  0  0  0  0
 17 77  1  0  0  0  0
 17 79  1  0  0  0  0
 18 27  1  0  0  0  0
 18 28  1  0  0  0  0
 18 30  1  0  0  0  0
 19 33  1  0  0  0  0
 19 36  1  0  0  0  0
 19 41  1  0  0  0  0
 20 31  1  0  0  0  0
 20 38  1  0  0  0  0
 20 99  1  0  0  0  0
 21 32  1  0  0  0  0
 21 43  1  0  0  0  0
 21101  1  0  0  0  0
 22 39  1  0  0  0  0
 22 40  1  0  0  0  0
 22106  1  0  0  0  0
 23 44  1  0  0  0  0
 23 51  1  0  0  0  0
 23116  1  0  0  0  0
 24 54  1  0  0  0  0
 24124  1  0  0  0  0
 25 26  1  6  0  0  0
 25 28  1  0  0  0  0
 25 83  1  0  0  0  0
 25 29  1  0  0  0  0
 26 27  1  1  0  0  0
 26 84  1  0  0  0  0
 26  1  1  0  0  0  0
 27 31  1  0  0  0  0
 27 85  1  6  0  0  0
 28 86  1  0  0  0  0
 28 87  1  0  0  0  0
 29 88  1  0  0  0  0
 29 89  1  0  0  0  0
 29 90  1  0  0  0  0
 30 32  1  0  0  0  0
 32 37  1  0  0  0  0
 32 91  1  1  0  0  0
 33 34  1  0  0  0  0
 33 40  1  0  0  0  0
 33 92  1  6  0  0  0
 34 35  1  0  0  0  0
 34 94  1  0  0  0  0
 34 95  1  0  0  0  0
 35 36  1  0  0  0  0
 35  4  1  0  0  0  0
 35 96  1  1  0  0  0
 36 97  1  0  0  0  0
 36 98  1  0  0  0  0
 37100  1  6  0  0  0
 37 47  1  0  0  0  0
 37  5  1  0  0  0  0
 38 42  1  6  0  0  0
 38  6  1  0  0  0  0
 38102  1  0  0  0  0
 39 43  1  0  0  0  0
 39 45  1  0  0  0  0
 39103  1  6  0  0  0
 41 44  1  0  0  0  0
 42 46  1  0  0  0  0
 42104  1  1  0  0  0
 42  7  1  0  0  0  0
 44 49  1  0  0  0  0
 44105  1  1  0  0  0
 45107  1  6  0  0  0
 45 50  1  0  0  0  0
 45 10  1  0  0  0  0
 46 48  1  0  0  0  0
 46108  1  0  0  0  0
 46109  1  0  0  0  0
 47110  1  0  0  0  0
 47111  1  0  0  0  0
 47112  1  0  0  0  0
 48 51  1  0  0  0  0
 48 24  1  0  0  0  0
 48113  1  1  0  0  0
 49114  1  1  0  0  0
 49 52  1  0  0  0  0
 49 12  1  0  0  0  0
 50 13  1  0  0  0  0
 50 53  1  0  0  0  0
 50117  1  6  0  0  0
 52121  1  0  0  0  0
 52122  1  0  0  0  0
 52123  1  0  0  0  0
 53 55  2  0  0  0  0
 53 56  1  0  0  0  0
 54 57  1  0  0  0  0
 55 58  1  0  0  0  0
 55128  1  0  0  0  0
 56 59  2  0  0  0  0
 56129  1  0  0  0  0
 57 61  2  0  0  0  0
 57 62  1  0  0  0  0
 58 60  2  0  0  0  0
 58130  1  0  0  0  0
 59 60  1  0  0  0  0
 59131  1  0  0  0  0
 61 63  1  0  0  0  0
 61132  1  0  0  0  0
 62 64  2  0  0  0  0
 62133  1  0  0  0  0
 63 65  2  0  0  0  0
 63134  1  0  0  0  0
 64 65  1  0  0  0  0
 64135  1  0  0  0  0
 65 66  1  0  0  0  0
 66 67  2  0  0  0  0
 66 68  1  0  0  0  0
 67 69  1  0  0  0  0
 67137  1  0  0  0  0
 68 70  2  0  0  0  0
 68138  1  0  0  0  0
 69 71  2  0  0  0  0
 69139  1  0  0  0  0
 70 71  1  0  0  0  0
 70140  1  0  0  0  0
 71 72  1  0  0  0  0
 72 73  2  0  0  0  0
 72 74  1  0  0  0  0
 73 75  1  0  0  0  0
 73141  1  0  0  0  0
 74 76  2  0  0  0  0
 74142  1  0  0  0  0
 75 77  2  0  0  0  0
 75143  1  0  0  0  0
 76 77  1  0  0  0  0
 76144  1  0  0  0  0
 78 79  1  0  0  0  0
 78 80  1  0  0  0  0
 78145  1  0  0  0  0
 78146  1  0  0  0  0
 79147  1  0  0  0  0
 79148  1  0  0  0  0
 80 81  1  0  0  0  0
 80149  1  0  0  0  0
 80150  1  0  0  0  0
 81 82  1  0  0  0  0
 81151  1  0  0  0  0
 81152  1  0  0  0  0
 82153  1  0  0  0  0
 82154  1  0  0  0  0
 82155  1  0  0  0  0
M  END
>  <PUBCHEM_COMPOUND_CID>
166548

>  <PUBCHEM_COMPOUND_CANONICALIZED>
1

>  <PUBCHEM_CACTVS_COMPLEXITY>
2150

>  <PUBCHEM_CACTVS_HBOND_ACCEPTOR>
17

>  <PUBCHEM_CACTVS_HBOND_DONOR>
14

>  <PUBCHEM_CACTVS_ROTATABLE_BOND>
14

>  <PUBCHEM_CACTVS_SUBSKEYS>
AAADcfB/vgAAAAAAAAAAAAAAAAAAAWLAAAAwYMGAAAAAAAABVAAAHgAQCAAADTzhmAYyBoPABgCIAiFSEACCCAAkIAAIiIGODMkPdjaGtTuWeSjm9hGZuYe6/faO4AAAAAAAAADAAAAAAAAAAAAAAAAAAA==

>  <PUBCHEM_IUPAC_OPENEYE_NAME>
N-[(3S,6S,9S,11R,15S,18S,20R,21R,24S,25S,26S)-6-[(1S,2S)-1,2-dihydroxy-2-(4-hydroxyphenyl)ethyl]-11,20,21,25-tetrahydroxy-3,15-bis[(1R)-1-hydroxyethyl]-26-methyl-2,5,8,14,17,23-hexaoxo-1,4,7,13,16,22-hexazatricyclo[22.3.0.09,13]heptacosan-18-yl]-4-[4-(4-pentoxyphenyl)phenyl]benzamide

>  <PUBCHEM_IUPAC_CAS_NAME>
N-[(3S,6S,9S,11R,15S,18S,20R,21R,24S,25S,26S)-6-[(1S,2S)-1,2-dihydroxy-2-(4-hydroxyphenyl)ethyl]-11,20,21,25-tetrahydroxy-3,15-bis[(1R)-1-hydroxyethyl]-26-methyl-2,5,8,14,17,23-hexaoxo-1,4,7,13,16,22-hexazatricyclo[22.3.0.09,13]heptacosan-18-yl]-4-[4-(4-pentoxyphenyl)phenyl]benzamide

>  <PUBCHEM_IUPAC_NAME_MARKUP>
<I>N</I>-[(3<I>S</I>,6<I>S</I>,9<I>S</I>,11<I>R</I>,15<I>S</I>,18<I>S</I>,20<I>R</I>,21<I>R</I>,24<I>S</I>,25<I>S</I>,26<I>S</I>)-6-[(1<I>S</I>,2<I>S</I>)-1,2-dihydroxy-2-(4-hydroxyphenyl)ethyl]-11,20,21,25-tetrahydroxy-3,15-bis[(1<I>R</I>)-1-hydroxyethyl]-26-methyl-2,5,8,14,17,23-hexaoxo-1,4,7,13,16,22-hexazatricyclo[22.3.0.0<SUP>9,13</SUP>]heptacosan-18-yl]-4-[4-(4-pentoxyphenyl)phenyl]benzamide

>  <PUBCHEM_IUPAC_NAME>
N-[(3S,6S,9S,11R,15S,18S,20R,21R,24S,25S,26S)-6-[(1S,2S)-1,2-dihydroxy-2-(4-hydroxyphenyl)ethyl]-11,20,21,25-tetrahydroxy-3,15-bis[(1R)-1-hydroxyethyl]-26-methyl-2,5,8,14,17,23-hexaoxo-1,4,7,13,16,22-hexazatricyclo[22.3.0.09,13]heptacosan-18-yl]-4-[4-(4-pentoxyphenyl)phenyl]benzamide

>  <PUBCHEM_IUPAC_SYSTEMATIC_NAME>
N-[(3S,6S,9S,11R,15S,18S,20R,21R,24S,25S,26S)-6-[(1S,2S)-2-(4-hydroxyphenyl)-1,2-bis(oxidanyl)ethyl]-26-methyl-11,20,21,25-tetrakis(oxidanyl)-3,15-bis[(1R)-1-oxidanylethyl]-2,5,8,14,17,23-hexakis(oxidanylidene)-1,4,7,13,16,22-hexazatricyclo[22.3.0.09,13]heptacosan-18-yl]-4-[4-(4-pentoxyphenyl)phenyl]benzamide

>  <PUBCHEM_IUPAC_TRADITIONAL_NAME>
4-[4-(4-amoxyphenyl)phenyl]-N-[(3S,6S,9S,11R,15S,18S,20R,21R,24S,25S,26S)-6-[(1S,2S)-1,2-dihydroxy-2-(4-hydroxyphenyl)ethyl]-11,20,21,25-tetrahydroxy-3,15-bis[(1R)-1-hydroxyethyl]-2,5,8,14,17,23-hexaketo-26-methyl-1,4,7,13,16,22-hexazatricyclo[22.3.0.09,13]heptacosan-18-yl]benzamide

>  <PUBCHEM_IUPAC_INCHI>
InChI=1S/C58H73N7O17/c1-5-6-7-24-82-40-22-18-35(19-23-40)33-10-8-32(9-11-33)34-12-14-37(15-13-34)51(74)59-41-26-43(70)54(77)63-56(79)47-48(71)29(2)27-65(47)58(81)45(31(4)67)61-55(78)46(50(73)49(72)36-16-20-38(68)21-17-36)62-53(76)42-25-39(69)28-64(42)57(80)44(30(3)66)60-52(41)75/h8-23,29-31,39,41-50,54,66-73,77H,5-7,24-28H2,1-4H3,(H,59,74)(H,60,75)(H,61,78)(H,62,76)(H,63,79)/t29-,30+,31+,39+,41-,42-,43+,44-,45-,46-,47-,48-,49-,50-,54+/m0/s1

>  <PUBCHEM_IUPAC_INCHIKEY>
JHVAMHSQVVQIOT-MFAJLEFUSA-N

>  <PUBCHEM_XLOGP3_AA>
2.3

>  <PUBCHEM_EXACT_MASS>
1139.506294

>  <PUBCHEM_MOLECULAR_FORMULA>
C58H73N7O17

>  <PUBCHEM_MOLECULAR_WEIGHT>
1140.2

>  <PUBCHEM_OPENEYE_CAN_SMILES>
CCCCCOC1=CC=C(C=C1)C2=CC=C(C=C2)C3=CC=C(C=C3)C(=O)NC4CC(C(NC(=O)C5C(C(CN5C(=O)C(NC(=O)C(NC(=O)C6CC(CN6C(=O)C(NC4=O)C(C)O)O)C(C(C7=CC=C(C=C7)O)O)O)C(C)O)C)O)O)O

>  <PUBCHEM_OPENEYE_ISO_SMILES>
CCCCCOC1=CC=C(C=C1)C2=CC=C(C=C2)C3=CC=C(C=C3)C(=O)N[C@H]4C[C@H]([C@H](NC(=O)[C@@H]5[C@H]([C@H](CN5C(=O)[C@@H](NC(=O)[C@@H](NC(=O)[C@@H]6C[C@H](CN6C(=O)[C@@H](NC4=O)[C@@H](C)O)O)[C@@H]([C@H](C7=CC=C(C=C7)O)O)O)[C@@H](C)O)C)O)O)O

>  <PUBCHEM_CACTVS_TPSA>
377

>  <PUBCHEM_MONOISOTOPIC_WEIGHT>
1139.506294

>  <PUBCHEM_TOTAL_CHARGE>
0

>  <PUBCHEM_HEAVY_ATOM_COUNT>
82

>  <PUBCHEM_ATOM_DEF_STEREO_COUNT>
15

>  <PUBCHEM_ATOM_UDEF_STEREO_COUNT>
0

>  <PUBCHEM_BOND_DEF_STEREO_COUNT>
0

>  <PUBCHEM_BOND_UDEF_STEREO_COUNT>
0

>  <PUBCHEM_ISOTOPIC_ATOM_COUNT>
0

>  <PUBCHEM_COMPONENT_COUNT>
1

>  <PUBCHEM_CACTVS_TAUTO_COUNT>
-1

>  <PUBCHEM_COORDINATE_TYPE>
1
5
255

>  <PUBCHEM_BONDANNOTATIONS>
26  1  6
45  10  5
49  12  5
50  13  6
48  24  5
25  29  6
27  85  6
32  91  6
33  92  6
39  103  5
35  4  6
44  105  5
37  5  6
53  55  8
53  56  8
55  58  8
56  59  8
57  61  8
57  62  8
58  60  8
59  60  8
38  6  6
61  63  8
62  64  8
63  65  8
64  65  8
66  67  8
66  68  8
67  69  8
68  70  8
69  71  8
42  7  6
70  71  8
72  73  8
72  74  8
73  75  8
74  76  8
75  77  8
76  77  8

$$$$
