131410
 OpenBabel05112018413D

 59 59  0  0  0  0  0  0  0  0999 V2000
    0.9716   -1.5605    0.7596 Br  0  0  0  0  0  0  0  0  0  0  0  0
    0.7372   -1.5177   -2.1427 Cl  0  0  0  0  0  0  0  0  0  0  0  0
    2.2676    3.5323   -0.9187 S   0  0  0  0  0  0  0  0  0  0  0  0
    3.2632    0.0342   -2.4388 O   0  0  0  0  0  0  0  0  0  0  0  0
    7.8099    0.2553    2.5528 O   0  0  0  0  0  0  0  0  0  0  0  0
    6.1185   -0.2974    3.6675 O   0  0  0  0  0  0  0  0  0  0  0  0
    1.0111    1.3480    0.7240 O   0  0  0  0  0  0  0  0  0  0  0  0
    3.8861    0.1506    2.1373 N   0  0  0  0  0  0  0  0  0  0  0  0
    7.3600    0.3446   -2.5105 N   0  0  0  0  0  0  0  0  0  0  0  0
    5.5105   -0.0539    0.4838 C   0  0  0  0  0  0  0  0  0  0  0  0
    4.5060   -0.6538    1.2580 C   0  0  0  0  0  0  0  0  0  0  0  0
    4.4031    1.4321    1.6615 C   0  0  0  0  0  0  0  0  0  0  0  0
    5.7478    0.9828    1.3708 C   0  0  0  0  0  0  0  0  0  0  0  0
    5.1987   -0.1702   -1.0257 C   0  0  0  0  0  0  0  0  0  0  0  0
    5.8886    0.4582   -2.3531 C   0  0  0  0  0  0  0  0  0  0  0  0
    3.7340   -1.6677    0.8678 C   0  0  0  0  0  0  0  0  0  0  0  0
    3.7547   -0.5419   -1.2789 C   0  0  0  0  0  0  0  0  0  0  0  0
    3.6419    2.2379    0.2255 C   0  0  0  0  0  0  0  0  0  0  0  0
    3.6760   -0.3246    3.5430 C   0  0  0  0  0  0  0  0  0  0  0  0
    2.9383   -1.1827   -0.1301 C   0  0  0  0  0  0  0  0  0  0  0  0
    6.5333    0.4180    2.7390 C   0  0  0  0  0  0  0  0  0  0  0  0
    7.7921   -0.9987   -2.1255 C   0  0  0  0  0  0  0  0  0  0  0  0
    7.7552    0.5658   -3.9349 C   0  0  0  0  0  0  0  0  0  0  0  0
    0.6924    3.9784   -2.2281 C   0  0  0  0  0  0  0  0  0  0  0  0
    8.8296    0.0676    3.4281 C   0  0  0  0  0  0  0  0  0  0  0  0
    0.5597    3.8085   -3.8187 C   0  0  0  0  0  0  0  0  0  0  0  0
   -0.4409    3.2843   -1.6549 C   0  0  0  0  0  0  0  0  0  0  0  0
    9.8176   -0.6920    2.5601 C   0  0  0  0  0  0  0  0  0  0  0  0
    0.1576    2.5057   -4.2041 C   0  0  0  0  0  0  0  0  0  0  0  0
   -0.3393    1.9799   -2.1031 C   0  0  0  0  0  0  0  0  0  0  0  0
   -0.8396    1.9305   -3.4417 C   0  0  0  0  0  0  0  0  0  0  0  0
    5.5003   -0.1765   -3.2148 H   0  0  0  0  0  0  0  0  0  0  0  0
    5.5594    1.4859   -2.6616 H   0  0  0  0  0  0  0  0  0  0  0  0
    3.1181   -1.9454    1.6299 H   0  0  0  0  0  0  0  0  0  0  0  0
    4.2934    2.3062   -0.6866 H   0  0  0  0  0  0  0  0  0  0  0  0
    3.5659    1.3213   -0.1681 H   0  0  0  0  0  0  0  0  0  0  0  0
    4.1036   -1.3770    3.7291 H   0  0  0  0  0  0  0  0  0  0  0  0
    4.1427    0.4067    4.2503 H   0  0  0  0  0  0  0  0  0  0  0  0
    2.7763   -0.4974    4.1971 H   0  0  0  0  0  0  0  0  0  0  0  0
    7.3192   -1.7780   -2.7676 H   0  0  0  0  0  0  0  0  0  0  0  0
    8.8949   -1.0736   -2.1734 H   0  0  0  0  0  0  0  0  0  0  0  0
    7.5067   -1.1903   -1.0777 H   0  0  0  0  0  0  0  0  0  0  0  0
    7.3155   -0.2072   -4.6174 H   0  0  0  0  0  0  0  0  0  0  0  0
    7.4188    1.5617   -4.3007 H   0  0  0  0  0  0  0  0  0  0  0  0
    8.8631    0.5165   -4.0434 H   0  0  0  0  0  0  0  0  0  0  0  0
    2.3782    0.3026   -2.7258 H   0  0  0  0  0  0  0  0  0  0  0  0
    9.1209    1.1010    3.6992 H   0  0  0  0  0  0  0  0  0  0  0  0
    8.6437   -0.4731    4.4065 H   0  0  0  0  0  0  0  0  0  0  0  0
   -0.3609    4.4657   -4.2817 H   0  0  0  0  0  0  0  0  0  0  0  0
   -0.9802    3.3385   -0.6842 H   0  0  0  0  0  0  0  0  0  0  0  0
    9.9461   -0.2863    1.5255 H   0  0  0  0  0  0  0  0  0  0  0  0
   10.8021   -0.6694    3.0266 H   0  0  0  0  0  0  0  0  0  0  0  0
    9.4155   -1.7197    2.4025 H   0  0  0  0  0  0  0  0  0  0  0  0
    0.5195    1.9232   -5.1128 H   0  0  0  0  0  0  0  0  0  0  0  0
    0.7612    1.6658   -2.2313 H   0  0  0  0  0  0  0  0  0  0  0  0
   -1.7388    2.6837   -3.3203 H   0  0  0  0  0  0  0  0  0  0  0  0
    0.6088    1.0770   -0.1243 H   0  0  0  0  0  0  0  0  0  0  0  0
    1.7909    0.7637    0.8113 H   0  0  0  0  0  0  0  0  0  0  0  0
    1.1026   -0.4492   -1.3414 H   0  0  0  0  0  0  0  0  0  0  0  0
  1 20  1  0  0  0  0
  2 59  1  0  0  0  0
  3 18  1  0  0  0  0
  3 24  1  0  0  0  0
  4 17  1  0  0  0  0
  4 46  1  0  0  0  0
  5 21  1  0  0  0  0
  5 25  1  0  0  0  0
  6 21  2  0  0  0  0
  7 57  1  0  0  0  0
  7 58  1  0  0  0  0
  8 11  1  0  0  0  0
  8 12  1  0  0  0  0
  8 19  1  0  0  0  0
  9 15  1  0  0  0  0
  9 22  1  0  0  0  0
  9 23  1  0  0  0  0
 10 11  1  0  0  0  0
 10 13  1  0  0  0  0
 10 14  2  0  0  0  0
 11 16  2  0  0  0  0
 12 13  2  0  0  0  0
 12 18  1  0  0  0  0
 13 21  1  0  0  0  0
 14 15  1  0  0  0  0
 14 17  1  0  0  0  0
 15 32  1  0  0  0  0
 15 33  1  0  0  0  0
 16 20  1  0  0  0  0
 16 34  1  0  0  0  0
 17 20  2  0  0  0  0
 18 35  1  0  0  0  0
 18 36  1  0  0  0  0
 19 37  1  0  0  0  0
 19 38  1  0  0  0  0
 19 39  1  0  0  0  0
 22 40  1  0  0  0  0
 22 41  1  0  0  0  0
 22 42  1  0  0  0  0
 23 43  1  0  0  0  0
 23 44  1  0  0  0  0
 23 45  1  0  0  0  0
 24 26  2  0  0  0  0
 24 27  1  0  0  0  0
 25 28  1  0  0  0  0
 25 47  1  0  0  0  0
 25 48  1  0  0  0  0
 26 29  1  0  0  0  0
 26 49  1  0  0  0  0
 27 30  2  0  0  0  0
 27 50  1  0  0  0  0
 28 51  1  0  0  0  0
 28 52  1  0  0  0  0
 28 53  1  0  0  0  0
 29 31  2  0  0  0  0
 29 54  1  0  0  0  0
 30 31  1  0  0  0  0
 30 55  1  0  0  0  0
 31 56  1  0  0  0  0
M  END
>  <PUBCHEM_COMPOUND_CID>
131410

>  <PUBCHEM_COMPOUND_CANONICALIZED>
1

>  <PUBCHEM_CACTVS_COMPLEXITY>
546

>  <PUBCHEM_CACTVS_HBOND_ACCEPTOR>
6

>  <PUBCHEM_CACTVS_HBOND_DONOR>
3

>  <PUBCHEM_CACTVS_ROTATABLE_BOND>
8

>  <PUBCHEM_CACTVS_SUBSKEYS>
AAADceB7OABEEAAAAAAAAAAAAAAAAWAAAAAwYAAAAAAAAFgB9AAAHgRACAABrAzl3gayz/MMFgioAyTyTACCgCAlKjQI2Dk8bPgIJnritZuGcYhmwBHo+1e8/f/OgkABUAEaBAAEgAKgAjQIAAAAAAAAAA==

>  <PUBCHEM_IUPAC_OPENEYE_NAME>
ethyl 6-bromo-4-[(dimethylamino)methyl]-5-hydroxy-1-methyl-2-(phenylsulfanylmethyl)indole-3-carboxylate;hydrate;hydrochloride

>  <PUBCHEM_IUPAC_CAS_NAME>
6-bromo-4-[(dimethylamino)methyl]-5-hydroxy-1-methyl-2-[(phenylthio)methyl]-3-indolecarboxylic acid ethyl ester;hydrate;hydrochloride

>  <PUBCHEM_IUPAC_NAME_MARKUP>
ethyl 6-bromo-4-[(dimethylamino)methyl]-5-hydroxy-1-methyl-2-(phenylsulfanylmethyl)indole-3-carboxylate;hydrate;hydrochloride

>  <PUBCHEM_IUPAC_NAME>
ethyl 6-bromo-4-[(dimethylamino)methyl]-5-hydroxy-1-methyl-2-(phenylsulfanylmethyl)indole-3-carboxylate;hydrate;hydrochloride

>  <PUBCHEM_IUPAC_SYSTEMATIC_NAME>
ethyl 6-bromanyl-4-[(dimethylamino)methyl]-1-methyl-5-oxidanyl-2-(phenylsulfanylmethyl)indole-3-carboxylate;hydrate;hydrochloride

>  <PUBCHEM_IUPAC_TRADITIONAL_NAME>
6-bromo-4-[(dimethylamino)methyl]-5-hydroxy-1-methyl-2-[(phenylthio)methyl]indole-3-carboxylic acid ethyl ester;hydrate;hydrochloride

>  <PUBCHEM_IUPAC_INCHI>
InChI=1S/C22H25BrN2O3S.ClH.H2O/c1-5-28-22(27)20-18(13-29-14-9-7-6-8-10-14)25(4)17-11-16(23)21(26)15(19(17)20)12-24(2)3;;/h6-11,26H,5,12-13H2,1-4H3;1H;1H2

>  <PUBCHEM_IUPAC_INCHIKEY>
PLWQHPWNKPKQJT-UHFFFAOYSA-N

>  <PUBCHEM_EXACT_MASS>
530.06417

>  <PUBCHEM_MOLECULAR_FORMULA>
C22H28BrClN2O4S

>  <PUBCHEM_MOLECULAR_WEIGHT>
531.9

>  <PUBCHEM_OPENEYE_CAN_SMILES>
CCOC(=O)C1=C(N(C2=CC(=C(C(=C21)CN(C)C)O)Br)C)CSC3=CC=CC=C3.O.Cl

>  <PUBCHEM_OPENEYE_ISO_SMILES>
CCOC(=O)C1=C(N(C2=CC(=C(C(=C21)CN(C)C)O)Br)C)CSC3=CC=CC=C3.O.Cl

>  <PUBCHEM_CACTVS_TPSA>
81

>  <PUBCHEM_MONOISOTOPIC_WEIGHT>
530.06417

>  <PUBCHEM_TOTAL_CHARGE>
0

>  <PUBCHEM_HEAVY_ATOM_COUNT>
31

>  <PUBCHEM_ATOM_DEF_STEREO_COUNT>
0

>  <PUBCHEM_ATOM_UDEF_STEREO_COUNT>
0

>  <PUBCHEM_BOND_DEF_STEREO_COUNT>
0

>  <PUBCHEM_BOND_UDEF_STEREO_COUNT>
0

>  <PUBCHEM_ISOTOPIC_ATOM_COUNT>
0

>  <PUBCHEM_COMPONENT_COUNT>
3

>  <PUBCHEM_CACTVS_TAUTO_COUNT>
-1

>  <PUBCHEM_COORDINATE_TYPE>
1
5
255

>  <PUBCHEM_BONDANNOTATIONS>
10  11  8
10  13  8
10  14  8
11  16  8
12  13  8
14  17  8
16  20  8
17  20  8
24  26  8
24  27  8
26  29  8
27  30  8
29  31  8
30  31  8
8  11  8
8  12  8

$$$$
