11629819
  -OEChem-05142003493D

 21 23  0     0  0  0  0  0  0999 V2000
    1.0206    2.1737    0.0001 O   0  0  0  0  0  0  0  0  0  0  0  0
    3.0196    0.8286    0.0002 O   0  0  0  0  0  0  0  0  0  0  0  0
   -1.6413    1.0648    0.0001 O   0  0  0  0  0  0  0  0  0  0  0  0
    2.9649   -2.0572   -0.0003 O   0  0  0  0  0  0  0  0  0  0  0  0
   -3.9269    1.2088    0.0002 O   0  0  0  0  0  0  0  0  0  0  0  0
    0.7477    0.8423    0.0002 C   0  0  0  0  0  0  0  0  0  0  0  0
   -0.4978    0.2530    0.0003 C   0  0  0  0  0  0  0  0  0  0  0  0
    1.8871    0.0736    0.0002 C   0  0  0  0  0  0  0  0  0  0  0  0
   -0.5974   -1.1375    0.0002 C   0  0  0  0  0  0  0  0  0  0  0  0
    1.8347   -1.3071    0.0003 C   0  0  0  0  0  0  0  0  0  0  0  0
    0.5745   -1.9168    0.0002 C   0  0  0  0  0  0  0  0  0  0  0  0
    2.4626    2.1591   -0.0007 C   0  0  0  0  0  0  0  0  0  0  0  0
   -1.9217   -1.7366   -0.0003 C   0  0  0  0  0  0  0  0  0  0  0  0
   -3.0086   -0.9606   -0.0004 C   0  0  0  0  0  0  0  0  0  0  0  0
   -2.9180    0.5119   -0.0001 C   0  0  0  0  0  0  0  0  0  0  0  0
    0.5016   -3.0026    0.0000 H   0  0  0  0  0  0  0  0  0  0  0  0
    2.8196    2.6896    0.8895 H   0  0  0  0  0  0  0  0  0  0  0  0
    2.8187    2.6880   -0.8923 H   0  0  0  0  0  0  0  0  0  0  0  0
   -2.0114   -2.8172   -0.0005 H   0  0  0  0  0  0  0  0  0  0  0  0
   -4.0005   -1.3993   -0.0008 H   0  0  0  0  0  0  0  0  0  0  0  0
    2.7183   -2.9981   -0.0003 H   0  0  0  0  0  0  0  0  0  0  0  0
  1  6  1  0  0  0  0
  1 12  1  0  0  0  0
  2  8  1  0  0  0  0
  2 12  1  0  0  0  0
  3  7  1  0  0  0  0
  3 15  1  0  0  0  0
  4 10  1  0  0  0  0
  4 21  1  0  0  0  0
  5 15  2  0  0  0  0
  6  7  2  0  0  0  0
  6  8  1  0  0  0  0
  7  9  1  0  0  0  0
  8 10  2  0  0  0  0
  9 11  2  0  0  0  0
  9 13  1  0  0  0  0
 10 11  1  0  0  0  0
 11 16  1  0  0  0  0
 12 17  1  0  0  0  0
 12 18  1  0  0  0  0
 13 14  2  0  0  0  0
 13 19  1  0  0  0  0
 14 15  1  0  0  0  0
 14 20  1  0  0  0  0
M  END
> <PUBCHEM_COMPOUND_CID>
11629819

> <PUBCHEM_CONFORMER_RMSD>
0.4

> <PUBCHEM_CONFORMER_DIVERSEORDER>
1

> <PUBCHEM_MMFF94_PARTIAL_CHARGES>
19
1 -0.36
10 0.08
11 -0.15
12 0.56
13 -0.18
14 -0.14
15 0.71
16 0.15
19 0.15
2 -0.36
20 0.15
21 0.45
3 -0.23
4 -0.53
5 -0.57
6 0.08
7 0.08
8 0.08
9 0.03

> <PUBCHEM_EFFECTIVE_ROTOR_COUNT>
0.6

> <PUBCHEM_PHARMACOPHORE_FEATURES>
7
1 1 acceptor
1 2 acceptor
1 4 donor
1 5 acceptor
5 1 2 6 8 12 rings
6 3 7 9 13 14 15 rings
6 6 7 8 9 10 11 rings

> <PUBCHEM_HEAVY_ATOM_COUNT>
15

> <PUBCHEM_ATOM_DEF_STEREO_COUNT>
0

> <PUBCHEM_ATOM_UDEF_STEREO_COUNT>
0

> <PUBCHEM_BOND_DEF_STEREO_COUNT>
0

> <PUBCHEM_BOND_UDEF_STEREO_COUNT>
0

> <PUBCHEM_ISOTOPIC_ATOM_COUNT>
0

> <PUBCHEM_COMPONENT_COUNT>
1

> <PUBCHEM_CACTVS_TAUTO_COUNT>
3

> <PUBCHEM_CONFORMER_ID>
00B174FB00000001

> <PUBCHEM_MMFF94_ENERGY>
44.7242

> <PUBCHEM_FEATURE_SELFOVERLAP>
35.7

> <PUBCHEM_SHAPE_FINGERPRINT>
10608611 8 18409165532579480597
10967382 1 18410575123407520325
10980938 120 18410857684942339714
11471102 20 18338230475536306525
13140716 1 18410009914275129379
13380535 21 18336838575166712991
13380535 76 18265047110245525362
13897977 150 18410290332974565581
14144814 61 18410574011163906649
14325111 11 18410856594284526945
14648413 74 18409169926014357555
14897335 6 18412257363560996637
15219456 202 18408326596643842307
15442244 35 18339924801163316235
15536298 74 18343582936795136010
15775835 57 18410017658248772309
16945 1 18194683906401560807
17990270 104 18410291423696039058
18186145 218 18343309136861757821
193761 8 18338517559424184226
19973954 147 18410576218793096315
20510252 161 17766567132629916009
20645477 70 18412259511298209831
21501502 16 18411133666898764199
22094290 62 18411137996204452699
2334 1 18410856606921567459
23402655 69 18342164558685392821
23463225 33 18408882923652172082
23552423 10 18336546105068690175
23559900 14 18199199558936909204
25 1 18408604772763838316
2748010 2 18410294722141141214
3071541 12 18411141359332793428
3071541 158 18261958436138448404
335352 9 18266459802282708695
528886 8 18411414037820719696
53812653 166 18342172310558127336
63268167 104 18411705378395318673
7364860 26 18342176678576627974
74978 22 18411420596510333991
7832392 63 18412825759437977735
81228 2 17692826891049588770
8809292 202 18260836951405667195

> <PUBCHEM_SHAPE_MULTIPOLES>
279.35
5.18
2.42
0.58
2.28
0.08
0
-1.1
0
-1.1
0
0.01
0.02
0

> <PUBCHEM_SHAPE_SELFOVERLAP>
631.863

> <PUBCHEM_SHAPE_VOLUME>
146

> <PUBCHEM_COORDINATE_TYPE>
2
5
10

$$$$
