10324367
  -OEChem-05152007383D

 82 84  0     1  0  0  0  0  0999 V2000
   -2.0475    0.1303    1.5340 O   0  0  0  0  0  0  0  0  0  0  0  0
    0.4018    1.4190   -0.6700 O   0  0  0  0  0  0  0  0  0  0  0  0
   -6.5786   -0.4504   -0.5508 O   0  0  0  0  0  0  0  0  0  0  0  0
    4.3926   -0.6647    0.8002 O   0  0  0  0  0  0  0  0  0  0  0  0
   -5.3735   -3.0111   -0.8151 O   0  0  0  0  0  0  0  0  0  0  0  0
    0.3559   -0.5091    0.6123 N   0  0  0  0  0  0  0  0  0  0  0  0
   -3.0048   -0.3318   -0.5370 N   0  0  0  0  0  0  0  0  0  0  0  0
    3.1619    1.0941   -0.0867 N   0  0  0  0  0  0  0  0  0  0  0  0
    5.0592    0.3608   -1.1714 N   0  0  0  0  0  0  0  0  0  0  0  0
   -4.5450   -2.2989    1.2422 N   0  0  0  0  0  0  0  0  0  0  0  0
   -0.8023   -2.5407    0.3936 C   0  0  1  0  0  0  0  0  0  0  0  0
    0.3759   -3.4479    0.1572 C   0  0  0  0  0  0  0  0  0  0  0  0
    0.2333   -2.6966    1.4534 C   0  0  1  0  0  0  0  0  0  0  0  0
   -0.7938   -1.1154   -0.0668 C   0  0  1  0  0  0  0  0  0  0  0  0
    0.9112   -1.3798    1.6555 C   0  0  0  0  0  0  0  0  0  0  0  0
    0.1749   -4.9248    0.1267 C   0  0  0  0  0  0  0  0  0  0  0  0
    1.4217   -2.9718   -0.7923 C   0  0  0  0  0  0  0  0  0  0  0  0
   -1.9969   -0.3654    0.4114 C   0  0  0  0  0  0  0  0  0  0  0  0
    0.8898    0.7076    0.2100 C   0  0  0  0  0  0  0  0  0  0  0  0
    2.1441    1.1392    0.9273 C   0  0  2  0  0  0  0  0  0  0  0  0
    2.0088    2.5109    1.6301 C   0  0  0  0  0  0  0  0  0  0  0  0
   -4.2794    0.3114   -0.3137 C   0  0  1  0  0  0  0  0  0  0  0  0
   -4.5366    1.4189   -1.3381 C   0  0  0  0  0  0  0  0  0  0  0  0
   -3.4119    2.4501   -1.3289 C   0  0  0  0  0  0  0  0  0  0  0  0
    3.3321    2.8718    2.3350 C   0  0  0  0  0  0  0  0  0  0  0  0
    1.7226    3.5970    0.5721 C   0  0  0  0  0  0  0  0  0  0  0  0
    0.8732    2.5342    2.6710 C   0  0  0  0  0  0  0  0  0  0  0  0
   -5.4011   -0.7146   -0.3415 C   0  0  0  0  0  0  0  0  0  0  0  0
   -3.7722    3.8061   -1.9707 C   0  0  0  0  0  0  0  0  0  0  0  0
   -3.2458    3.2113    0.0028 C   0  0  0  0  0  0  0  0  0  0  0  0
   -2.9573    4.4702   -0.8412 C   0  0  0  0  0  0  0  0  0  0  0  0
    4.2216    0.1851   -0.0728 C   0  0  0  0  0  0  0  0  0  0  0  0
   -5.0926   -2.1446   -0.0039 C   0  0  0  0  0  0  0  0  0  0  0  0
    6.2322   -0.4500   -1.3987 C   0  0  0  0  0  0  0  0  0  0  0  0
    6.8795   -0.0433   -2.7275 C   0  0  0  0  0  0  0  0  0  0  0  0
    7.2229   -0.2305   -0.2506 C   0  0  0  0  0  0  0  0  0  0  0  0
    5.8242   -1.9266   -1.4570 C   0  0  0  0  0  0  0  0  0  0  0  0
   -1.7790   -2.9832    0.5205 H   0  0  0  0  0  0  0  0  0  0  0  0
   -0.0045   -3.2271    2.3628 H   0  0  0  0  0  0  0  0  0  0  0  0
   -0.6752   -1.0152   -1.1513 H   0  0  0  0  0  0  0  0  0  0  0  0
    1.9921   -1.4967    1.5591 H   0  0  0  0  0  0  0  0  0  0  0  0
    0.6666   -0.9464    2.6303 H   0  0  0  0  0  0  0  0  0  0  0  0
   -0.1471   -5.2518   -0.8676 H   0  0  0  0  0  0  0  0  0  0  0  0
    1.1046   -5.4472    0.3758 H   0  0  0  0  0  0  0  0  0  0  0  0
   -0.5882   -5.2462    0.8442 H   0  0  0  0  0  0  0  0  0  0  0  0
    1.1973   -3.3415   -1.8003 H   0  0  0  0  0  0  0  0  0  0  0  0
    1.5721   -1.8984   -0.8982 H   0  0  0  0  0  0  0  0  0  0  0  0
    2.3939   -3.3919   -0.5073 H   0  0  0  0  0  0  0  0  0  0  0  0
    2.4281    0.4435    1.7151 H   0  0  0  0  0  0  0  0  0  0  0  0
   -2.8692   -0.8127   -1.4218 H   0  0  0  0  0  0  0  0  0  0  0  0
   -4.2865    0.7375    0.6965 H   0  0  0  0  0  0  0  0  0  0  0  0
    3.0669    1.6894   -0.9037 H   0  0  0  0  0  0  0  0  0  0  0  0
   -4.6246    0.9905   -2.3448 H   0  0  0  0  0  0  0  0  0  0  0  0
   -5.4993    1.8988   -1.1199 H   0  0  0  0  0  0  0  0  0  0  0  0
   -2.4621    2.0527   -1.7129 H   0  0  0  0  0  0  0  0  0  0  0  0
    3.6019    2.1110    3.0760 H   0  0  0  0  0  0  0  0  0  0  0  0
    4.1612    2.9572    1.6241 H   0  0  0  0  0  0  0  0  0  0  0  0
    3.2533    3.8306    2.8604 H   0  0  0  0  0  0  0  0  0  0  0  0
    0.7083    3.5452    0.1676 H   0  0  0  0  0  0  0  0  0  0  0  0
    1.7973    4.5913    1.0321 H   0  0  0  0  0  0  0  0  0  0  0  0
    2.4367    3.5931   -0.2562 H   0  0  0  0  0  0  0  0  0  0  0  0
   -0.1022    2.3478    2.2093 H   0  0  0  0  0  0  0  0  0  0  0  0
    0.8170    3.5054    3.1756 H   0  0  0  0  0  0  0  0  0  0  0  0
    1.0320    1.7677    3.4375 H   0  0  0  0  0  0  0  0  0  0  0  0
   -3.3923    3.9677   -2.9829 H   0  0  0  0  0  0  0  0  0  0  0  0
   -4.8377    4.0633   -1.9469 H   0  0  0  0  0  0  0  0  0  0  0  0
   -4.1570    3.2953    0.6068 H   0  0  0  0  0  0  0  0  0  0  0  0
   -2.4238    2.8810    0.6430 H   0  0  0  0  0  0  0  0  0  0  0  0
   -3.3593    5.4082   -0.4510 H   0  0  0  0  0  0  0  0  0  0  0  0
   -1.8966    4.6060   -1.0822 H   0  0  0  0  0  0  0  0  0  0  0  0
    4.8451    1.1106   -1.8223 H   0  0  0  0  0  0  0  0  0  0  0  0
   -4.3003   -3.2185    1.5942 H   0  0  0  0  0  0  0  0  0  0  0  0
   -4.3667   -1.5145    1.8612 H   0  0  0  0  0  0  0  0  0  0  0  0
    7.7769   -0.6369   -2.9341 H   0  0  0  0  0  0  0  0  0  0  0  0
    7.1709    1.0135   -2.7183 H   0  0  0  0  0  0  0  0  0  0  0  0
    6.1845   -0.1813   -3.5640 H   0  0  0  0  0  0  0  0  0  0  0  0
    8.1602   -0.7677   -0.4376 H   0  0  0  0  0  0  0  0  0  0  0  0
    7.4672    0.8326   -0.1390 H   0  0  0  0  0  0  0  0  0  0  0  0
    6.8442   -0.5800    0.7148 H   0  0  0  0  0  0  0  0  0  0  0  0
    5.4862   -2.3233   -0.4954 H   0  0  0  0  0  0  0  0  0  0  0  0
    6.6718   -2.5494   -1.7671 H   0  0  0  0  0  0  0  0  0  0  0  0
    5.0164   -2.0855   -2.1814 H   0  0  0  0  0  0  0  0  0  0  0  0
  1 18  2  0  0  0  0
  2 19  2  0  0  0  0
  3 28  2  0  0  0  0
  4 32  2  0  0  0  0
  5 33  2  0  0  0  0
  6 14  1  0  0  0  0
  6 15  1  0  0  0  0
  6 19  1  0  0  0  0
  7 18  1  0  0  0  0
  7 22  1  0  0  0  0
  7 50  1  0  0  0  0
  8 20  1  0  0  0  0
  8 32  1  0  0  0  0
  8 52  1  0  0  0  0
  9 32  1  0  0  0  0
  9 34  1  0  0  0  0
  9 71  1  0  0  0  0
 10 33  1  0  0  0  0
 10 72  1  0  0  0  0
 10 73  1  0  0  0  0
 11 12  1  0  0  0  0
 11 13  1  0  0  0  0
 11 14  1  0  0  0  0
 11 38  1  0  0  0  0
 12 13  1  0  0  0  0
 12 16  1  0  0  0  0
 12 17  1  0  0  0  0
 13 15  1  0  0  0  0
 13 39  1  0  0  0  0
 14 18  1  0  0  0  0
 14 40  1  0  0  0  0
 15 41  1  0  0  0  0
 15 42  1  0  0  0  0
 16 43  1  0  0  0  0
 16 44  1  0  0  0  0
 16 45  1  0  0  0  0
 17 46  1  0  0  0  0
 17 47  1  0  0  0  0
 17 48  1  0  0  0  0
 19 20  1  0  0  0  0
 20 21  1  0  0  0  0
 20 49  1  0  0  0  0
 21 25  1  0  0  0  0
 21 26  1  0  0  0  0
 21 27  1  0  0  0  0
 22 23  1  0  0  0  0
 22 28  1  0  0  0  0
 22 51  1  0  0  0  0
 23 24  1  0  0  0  0
 23 53  1  0  0  0  0
 23 54  1  0  0  0  0
 24 29  1  0  0  0  0
 24 30  1  0  0  0  0
 24 55  1  0  0  0  0
 25 56  1  0  0  0  0
 25 57  1  0  0  0  0
 25 58  1  0  0  0  0
 26 59  1  0  0  0  0
 26 60  1  0  0  0  0
 26 61  1  0  0  0  0
 27 62  1  0  0  0  0
 27 63  1  0  0  0  0
 27 64  1  0  0  0  0
 28 33  1  0  0  0  0
 29 31  1  0  0  0  0
 29 65  1  0  0  0  0
 29 66  1  0  0  0  0
 30 31  1  0  0  0  0
 30 67  1  0  0  0  0
 30 68  1  0  0  0  0
 31 69  1  0  0  0  0
 31 70  1  0  0  0  0
 34 35  1  0  0  0  0
 34 36  1  0  0  0  0
 34 37  1  0  0  0  0
 35 74  1  0  0  0  0
 35 75  1  0  0  0  0
 35 76  1  0  0  0  0
 36 77  1  0  0  0  0
 36 78  1  0  0  0  0
 36 79  1  0  0  0  0
 37 80  1  0  0  0  0
 37 81  1  0  0  0  0
 37 82  1  0  0  0  0
M  END
> <PUBCHEM_COMPOUND_CID>
10324367

> <PUBCHEM_CONFORMER_RMSD>
1.2

> <PUBCHEM_CONFORMER_DIVERSEORDER>
1
22
50
44
57
20
48
40
59
43
49
42
56
58
45
16
8
37
55
46
25
39
51
52
26
13
7
18
24
47
38
35
19
21
11
27
36
9
10
28
12
15
31
14
32
17
4
34
54
41
30
3
33
23
2
5
53
6
29

> <PUBCHEM_MMFF94_PARTIAL_CHARGES>
32
1 -0.57
10 -0.8
11 -0.19
12 -0.19
13 -0.19
14 0.46
15 0.4
16 0.09
17 0.09
18 0.57
19 0.57
2 -0.57
20 0.36
22 0.36
28 0.51
3 -0.57
32 0.69
33 0.63
34 0.3
38 0.1
39 0.1
4 -0.57
5 -0.57
50 0.37
52 0.37
6 -0.66
7 -0.73
71 0.37
72 0.37
73 0.37
8 -0.73
9 -0.73

> <PUBCHEM_EFFECTIVE_ROTOR_COUNT>
15.6

> <PUBCHEM_PHARMACOPHORE_FEATURES>
14
1 1 acceptor
1 10 donor
1 2 acceptor
1 3 acceptor
1 4 acceptor
1 5 acceptor
1 7 donor
1 8 donor
1 9 donor
3 12 16 17 hydrophobe
4 21 25 26 27 hydrophobe
4 24 29 30 31 rings
4 34 35 36 37 hydrophobe
6 6 11 12 13 14 15 rings

> <PUBCHEM_HEAVY_ATOM_COUNT>
37

> <PUBCHEM_ATOM_DEF_STEREO_COUNT>
4

> <PUBCHEM_ATOM_UDEF_STEREO_COUNT>
1

> <PUBCHEM_BOND_DEF_STEREO_COUNT>
0

> <PUBCHEM_BOND_UDEF_STEREO_COUNT>
0

> <PUBCHEM_ISOTOPIC_ATOM_COUNT>
0

> <PUBCHEM_COMPONENT_COUNT>
1

> <PUBCHEM_CACTVS_TAUTO_COUNT>
36

> <PUBCHEM_CONFORMER_ID>
009D898F00000001

> <PUBCHEM_MMFF94_ENERGY>
111.9015

> <PUBCHEM_FEATURE_SELFOVERLAP>
71.101

> <PUBCHEM_SHAPE_FINGERPRINT>
10190108 129 18337687368869811417
10670039 82 18186799166801046901
11513181 2 18050844713172534245
11578080 2 17971191422590493069
13782708 43 18201438142170392719
14347329 18 18113901524884715524
15183329 4 17530971263685647468
15324884 4 18047744095214743217
15351339 4 18339077065167295010
20771845 165 18267300018535865096
21033648 29 18196915868204970409
21859007 373 18337657698866757680
22393880 68 18339631261845445805
23536364 44 18129665196958358960
23559900 14 17985829457093008274
3298306 158 18340199705093667990
3383291 50 18272376412319109314
350125 39 18409163325066322555
4058900 60 17823424799143205178
5265222 85 18334868229451345812
5776283 40 18264496259827394020
59755656 215 18409163299449752967
6004065 56 17846778546771539474

> <PUBCHEM_SHAPE_MULTIPOLES>
707.19
14.56
5.63
1.99
9.76
0
0.22
-1.04
-9.6
-4.42
0.4
2.02
1.37
3.17

> <PUBCHEM_SHAPE_SELFOVERLAP>
1461.721

> <PUBCHEM_SHAPE_VOLUME>
408.1

> <PUBCHEM_COORDINATE_TYPE>
2
5
10

$$$$
