5284360
 OpenBabel04242015273D

 60 60  0  0  0  0  0  0  0  0999 V2000
    1.2523    1.9139    0.5088 S   0  0  0  0  0  0  0  0  0  0  0  0
    1.3137   -2.1401   -0.9157 O   0  0  0  0  0  0  0  0  0  0  0  0
   -2.5217    0.1789    2.4584 O   0  0  0  0  0  0  0  0  0  0  0  0
   -4.3914    1.5177    2.3488 O   0  0  0  0  0  0  0  0  0  0  0  0
   -1.2659    2.6600    2.3950 O   0  0  0  0  0  0  0  0  0  0  0  0
    1.8531   -4.3779   -1.3615 O   0  0  0  0  0  0  0  0  0  0  0  0
    1.2994    3.1914    1.4887 O   0  0  0  0  0  0  0  0  0  0  0  0
    0.6959    2.3772   -0.7459 O   0  0  0  0  0  0  0  0  0  0  0  0
    0.7135    0.8406    1.2992 O   0  0  0  0  0  0  0  0  0  0  0  0
   -0.7064    2.6390    4.6040 N   0  0  0  0  0  0  0  0  0  0  0  0
    5.7881   -3.9720    3.0116 N   0  0  0  0  0  0  0  0  0  0  0  0
    7.2375   -5.8288    2.5200 N   0  0  0  0  0  0  0  0  0  0  0  0
    6.8864   -5.1666    4.5979 N   0  0  0  0  0  0  0  0  0  0  0  0
   -2.5769   -0.6051   -0.1982 C   0  0  0  0  0  0  0  0  0  0  0  0
   -3.8005    0.1270    0.4223 C   0  0  0  0  0  0  0  0  0  0  0  0
   -2.4147   -1.9921   -0.1765 C   0  0  0  0  0  0  0  0  0  0  0  0
   -1.5576    0.1528   -0.7727 C   0  0  0  0  0  0  0  0  0  0  0  0
   -0.1144   -1.7931   -0.9566 C   0  0  0  0  0  0  0  0  0  0  0  0
   -1.1696   -2.5935   -0.5236 C   0  0  0  0  0  0  0  0  0  0  0  0
   -0.3659   -0.4527   -1.1962 C   0  0  0  0  0  0  0  0  0  0  0  0
   -3.6088    0.7082    1.8416 C   0  0  0  0  0  0  0  0  0  0  0  0
   -2.1329    0.7908    3.6989 C   0  0  0  0  0  0  0  0  0  0  0  0
    3.5600   -2.9516   -0.4128 C   0  0  0  0  0  0  0  0  0  0  0  0
   -1.3555    2.0982    3.4976 C   0  0  0  0  0  0  0  0  0  0  0  0
    2.1799   -3.2616   -0.9730 C   0  0  0  0  0  0  0  0  0  0  0  0
    4.6556   -3.8199   -0.5819 C   0  0  0  0  0  0  0  0  0  0  0  0
    3.6199   -2.1215    0.6963 C   0  0  0  0  0  0  0  0  0  0  0  0
    5.2484   -3.5971    1.7693 C   0  0  0  0  0  0  0  0  0  0  0  0
    5.5624   -4.0560    0.4866 C   0  0  0  0  0  0  0  0  0  0  0  0
    4.2260   -2.6451    1.8425 C   0  0  0  0  0  0  0  0  0  0  0  0
    0.0494    3.8754    4.4672 C   0  0  0  0  0  0  0  0  0  0  0  0
   -0.6762    2.0013    5.9078 C   0  0  0  0  0  0  0  0  0  0  0  0
    6.6109   -4.9185    3.2938 C   0  0  0  0  0  0  0  0  0  0  0  0
    2.9746    1.6011    0.2860 C   0  0  0  0  0  0  0  0  0  0  0  0
   -4.0333    0.9816   -0.2116 H   0  0  0  0  0  0  0  0  0  0  0  0
   -4.6643   -0.5323    0.4345 H   0  0  0  0  0  0  0  0  0  0  0  0
   -3.2387   -2.6282    0.1446 H   0  0  0  0  0  0  0  0  0  0  0  0
   -1.6561    1.2430   -0.8226 H   0  0  0  0  0  0  0  0  0  0  0  0
   -1.0432   -3.6678   -0.4164 H   0  0  0  0  0  0  0  0  0  0  0  0
    0.4091    0.1688   -1.6492 H   0  0  0  0  0  0  0  0  0  0  0  0
   -3.0012    0.9531    4.3533 H   0  0  0  0  0  0  0  0  0  0  0  0
   -1.4842    0.0593    4.1866 H   0  0  0  0  0  0  0  0  0  0  0  0
    4.7703   -4.3958   -1.4989 H   0  0  0  0  0  0  0  0  0  0  0  0
    4.1521   -1.1746    0.4433 H   0  0  0  0  0  0  0  0  0  0  0  0
    6.4272   -4.6861    0.3179 H   0  0  0  0  0  0  0  0  0  0  0  0
    3.9078   -2.2736    2.8159 H   0  0  0  0  0  0  0  0  0  0  0  0
   -0.2773    4.5796    5.2338 H   0  0  0  0  0  0  0  0  0  0  0  0
    1.1118    3.6473    4.5924 H   0  0  0  0  0  0  0  0  0  0  0  0
   -0.0991    4.3473    3.4936 H   0  0  0  0  0  0  0  0  0  0  0  0
   -1.6924    1.9758    6.3132 H   0  0  0  0  0  0  0  0  0  0  0  0
   -0.2925    0.9833    5.8132 H   0  0  0  0  0  0  0  0  0  0  0  0
   -0.0273    2.5605    6.5883 H   0  0  0  0  0  0  0  0  0  0  0  0
    7.5826   -6.6164    3.0559 H   0  0  0  0  0  0  0  0  0  0  0  0
    6.6468   -6.1584    1.7707 H   0  0  0  0  0  0  0  0  0  0  0  0
    6.4986   -4.4449    5.1997 H   0  0  0  0  0  0  0  0  0  0  0  0
    7.8614   -5.3403    4.8093 H   0  0  0  0  0  0  0  0  0  0  0  0
    3.4052    2.3556   -0.3695 H   0  0  0  0  0  0  0  0  0  0  0  0
    3.4634    1.5727    1.2608 H   0  0  0  0  0  0  0  0  0  0  0  0
    3.0476    0.6239   -0.1924 H   0  0  0  0  0  0  0  0  0  0  0  0
    0.3700    3.2553    1.8303 H   0  0  0  0  0  0  0  0  0  0  0  0
  1  7  1  0  0  0  0
  1  8  2  0  0  0  0
  1  9  2  0  0  0  0
  1 34  1  0  0  0  0
  2 18  1  0  0  0  0
  2 25  1  0  0  0  0
  3 21  1  0  0  0  0
  3 22  1  0  0  0  0
  4 21  2  0  0  0  0
  5 24  2  0  0  0  0
  6 25  2  0  0  0  0
  7 60  1  0  0  0  0
 10 24  1  0  0  0  0
 10 31  1  0  0  0  0
 10 32  1  0  0  0  0
 11 28  1  0  0  0  0
 11 33  2  0  0  0  0
 12 33  1  0  0  0  0
 12 53  1  0  0  0  0
 12 54  1  0  0  0  0
 13 33  1  0  0  0  0
 13 55  1  0  0  0  0
 13 56  1  0  0  0  0
 14 15  1  0  0  0  0
 14 16  2  0  0  0  0
 14 17  1  0  0  0  0
 15 21  1  0  0  0  0
 15 35  1  0  0  0  0
 15 36  1  0  0  0  0
 16 19  1  0  0  0  0
 16 37  1  0  0  0  0
 17 20  2  0  0  0  0
 17 38  1  0  0  0  0
 18 19  2  0  0  0  0
 18 20  1  0  0  0  0
 19 39  1  0  0  0  0
 20 40  1  0  0  0  0
 22 24  1  0  0  0  0
 22 41  1  0  0  0  0
 22 42  1  0  0  0  0
 23 25  1  0  0  0  0
 23 26  2  0  0  0  0
 23 27  1  0  0  0  0
 26 29  1  0  0  0  0
 26 43  1  0  0  0  0
 27 30  2  0  0  0  0
 27 44  1  0  0  0  0
 28 29  2  0  0  0  0
 28 30  1  0  0  0  0
 29 45  1  0  0  0  0
 30 46  1  0  0  0  0
 31 47  1  0  0  0  0
 31 48  1  0  0  0  0
 31 49  1  0  0  0  0
 32 50  1  0  0  0  0
 32 51  1  0  0  0  0
 32 52  1  0  0  0  0
 34 57  1  0  0  0  0
 34 58  1  0  0  0  0
 34 59  1  0  0  0  0
M  END
>  <PUBCHEM_COMPOUND_CID>
5284360

>  <PUBCHEM_COMPOUND_CANONICALIZED>
1

>  <PUBCHEM_CACTVS_COMPLEXITY>
695

>  <PUBCHEM_CACTVS_HBOND_ACCEPTOR>
9

>  <PUBCHEM_CACTVS_HBOND_DONOR>
3

>  <PUBCHEM_CACTVS_ROTATABLE_BOND>
9

>  <PUBCHEM_CACTVS_SUBSKEYS>
AAADceB7vABAAAAAAAAAAAAAAAAAAAAAAAAwYAAAAAAAAAABQAAAHgQQCAAADAyhmAazzoNABIKoAiXSfHKCCAEkIgAIiAFObMgOJjKEtZ+DOyDkwhEY6YeY2aGeKAAAAAAAAABQAAAAAAAAAAAAAAAAAA==

>  <PUBCHEM_IUPAC_OPENEYE_NAME>
[4-[2-[2-(dimethylamino)-2-oxo-ethoxy]-2-oxo-ethyl]phenyl] 4-guanidinobenzoate;methanesulfonic acid

>  <PUBCHEM_IUPAC_CAS_NAME>
4-(diaminomethylideneamino)benzoic acid [4-[2-[2-(dimethylamino)-2-oxoethoxy]-2-oxoethyl]phenyl] ester;methanesulfonic acid

>  <PUBCHEM_IUPAC_NAME_MARKUP>
[4-[2-[2-(dimethylamino)-2-oxoethoxy]-2-oxoethyl]phenyl] 4-(diaminomethylideneamino)benzoate;methanesulfonic acid

>  <PUBCHEM_IUPAC_NAME>
[4-[2-[2-(dimethylamino)-2-oxoethoxy]-2-oxoethyl]phenyl] 4-(diaminomethylideneamino)benzoate;methanesulfonic acid

>  <PUBCHEM_IUPAC_SYSTEMATIC_NAME>
[4-[2-[2-(dimethylamino)-2-oxidanylidene-ethoxy]-2-oxidanylidene-ethyl]phenyl] 4-[bis(azanyl)methylideneamino]benzoate;methanesulfonic acid

>  <PUBCHEM_IUPAC_TRADITIONAL_NAME>
4-guanidinobenzoic acid [4-[2-[2-(dimethylamino)-2-keto-ethoxy]-2-keto-ethyl]phenyl] ester;mesylic acid

>  <PUBCHEM_IUPAC_INCHI>
InChI=1S/C20H22N4O5.CH4O3S/c1-24(2)17(25)12-28-18(26)11-13-3-9-16(10-4-13)29-19(27)14-5-7-15(8-6-14)23-20(21)22;1-5(2,3)4/h3-10H,11-12H2,1-2H3,(H4,21,22,23);1H3,(H,2,3,4)

>  <PUBCHEM_IUPAC_INCHIKEY>
FSEKIHNIDBATFG-UHFFFAOYSA-N

>  <PUBCHEM_EXACT_MASS>
494.147135

>  <PUBCHEM_MOLECULAR_FORMULA>
C21H26N4O8S

>  <PUBCHEM_MOLECULAR_WEIGHT>
494.5

>  <PUBCHEM_OPENEYE_CAN_SMILES>
CN(C)C(=O)COC(=O)CC1=CC=C(C=C1)OC(=O)C2=CC=C(C=C2)N=C(N)N.CS(=O)(=O)O

>  <PUBCHEM_OPENEYE_ISO_SMILES>
CN(C)C(=O)COC(=O)CC1=CC=C(C=C1)OC(=O)C2=CC=C(C=C2)N=C(N)N.CS(=O)(=O)O

>  <PUBCHEM_CACTVS_TPSA>
200

>  <PUBCHEM_MONOISOTOPIC_WEIGHT>
494.147135

>  <PUBCHEM_TOTAL_CHARGE>
0

>  <PUBCHEM_HEAVY_ATOM_COUNT>
34

>  <PUBCHEM_ATOM_DEF_STEREO_COUNT>
0

>  <PUBCHEM_ATOM_UDEF_STEREO_COUNT>
0

>  <PUBCHEM_BOND_DEF_STEREO_COUNT>
0

>  <PUBCHEM_BOND_UDEF_STEREO_COUNT>
0

>  <PUBCHEM_ISOTOPIC_ATOM_COUNT>
0

>  <PUBCHEM_COMPONENT_COUNT>
2

>  <PUBCHEM_CACTVS_TAUTO_COUNT>
-1

>  <PUBCHEM_COORDINATE_TYPE>
1
5
255

>  <PUBCHEM_BONDANNOTATIONS>
14  16  8
14  17  8
16  19  8
17  20  8
18  19  8
18  20  8
23  26  8
23  27  8
26  29  8
27  30  8
28  29  8
28  30  8

$$$$
