122507647
  -OEChem-05142003503D

 40 43  0     0  0  0  0  0  0999 V2000
   -2.3777   -2.9938   -0.9577 Cl  0  0  0  0  0  0  0  0  0  0  0  0
   -7.4631    1.7559   -0.7411 F   0  0  0  0  0  0  0  0  0  0  0  0
   -7.6452    0.9687    1.2924 F   0  0  0  0  0  0  0  0  0  0  0  0
    5.0877   -2.0891    0.2048 F   0  0  0  0  0  0  0  0  0  0  0  0
   -5.6052    1.6263    0.5527 O   0  0  0  0  0  0  0  0  0  0  0  0
   -6.7127   -0.3396   -0.3080 O   0  0  0  0  0  0  0  0  0  0  0  0
    3.4574    0.6637   -1.6629 O   0  0  0  0  0  0  0  0  0  0  0  0
    2.8739   -0.1874    0.4493 N   0  0  0  0  0  0  0  0  0  0  0  0
   -0.4917    0.0737   -0.9058 N   0  0  0  0  0  0  0  0  0  0  0  0
    0.7945   -0.7290    1.4539 N   0  0  0  0  0  0  0  0  0  0  0  0
   -2.6201   -0.4387    0.0123 C   0  0  0  0  0  0  0  0  0  0  0  0
   -4.7287    0.6311    0.2428 C   0  0  0  0  0  0  0  0  0  0  0  0
   -5.3606   -0.4906   -0.2481 C   0  0  0  0  0  0  0  0  0  0  0  0
   -3.3575    0.6877    0.3848 C   0  0  0  0  0  0  0  0  0  0  0  0
   -3.2650   -1.5835   -0.4885 C   0  0  0  0  0  0  0  0  0  0  0  0
   -4.6551   -1.6156   -0.6229 C   0  0  0  0  0  0  0  0  0  0  0  0
   -1.1772   -0.3855    0.1598 C   0  0  0  0  0  0  0  0  0  0  0  0
   -6.8447    0.9966    0.1977 C   0  0  0  0  0  0  0  0  0  0  0  0
    5.1917    0.2553   -0.1672 C   0  0  0  0  0  0  0  0  0  0  0  0
    5.9371    1.4343   -0.1714 C   0  0  0  0  0  0  0  0  0  0  0  0
   -0.5456   -0.7797    1.3188 C   0  0  0  0  0  0  0  0  0  0  0  0
    1.4801   -0.2698    0.3882 C   0  0  0  0  0  0  0  0  0  0  0  0
    3.7537    0.2587   -0.5439 C   0  0  0  0  0  0  0  0  0  0  0  0
    5.7939   -0.9495    0.1954 C   0  0  0  0  0  0  0  0  0  0  0  0
    7.2851    1.4084    0.1870 C   0  0  0  0  0  0  0  0  0  0  0  0
    0.8483    0.1244   -0.7708 C   0  0  0  0  0  0  0  0  0  0  0  0
    5.3175    2.7386   -0.5550 C   0  0  0  0  0  0  0  0  0  0  0  0
    7.1418   -0.9753    0.5538 C   0  0  0  0  0  0  0  0  0  0  0  0
    7.8872    0.2037    0.5497 C   0  0  0  0  0  0  0  0  0  0  0  0
   -2.8805    1.5821    0.7733 H   0  0  0  0  0  0  0  0  0  0  0  0
   -5.1720   -2.4888   -1.0071 H   0  0  0  0  0  0  0  0  0  0  0  0
   -1.0863   -1.1508    2.1821 H   0  0  0  0  0  0  0  0  0  0  0  0
    3.2728   -0.4864    1.3360 H   0  0  0  0  0  0  0  0  0  0  0  0
    7.8807    2.3175    0.1875 H   0  0  0  0  0  0  0  0  0  0  0  0
    1.3202    0.5009   -1.6629 H   0  0  0  0  0  0  0  0  0  0  0  0
    5.1401    2.7749   -1.6345 H   0  0  0  0  0  0  0  0  0  0  0  0
    5.9668    3.5831   -0.2980 H   0  0  0  0  0  0  0  0  0  0  0  0
    4.3732    2.8972   -0.0236 H   0  0  0  0  0  0  0  0  0  0  0  0
    7.6105   -1.9134    0.8364 H   0  0  0  0  0  0  0  0  0  0  0  0
    8.9367    0.1833    0.8287 H   0  0  0  0  0  0  0  0  0  0  0  0
  1 15  1  0  0  0  0
  2 18  1  0  0  0  0
  3 18  1  0  0  0  0
  4 24  1  0  0  0  0
  5 12  1  0  0  0  0
  5 18  1  0  0  0  0
  6 13  1  0  0  0  0
  6 18  1  0  0  0  0
  7 23  2  0  0  0  0
  8 22  1  0  0  0  0
  8 23  1  0  0  0  0
  8 33  1  0  0  0  0
  9 17  1  0  0  0  0
  9 26  2  0  0  0  0
 10 21  1  0  0  0  0
 10 22  2  0  0  0  0
 11 14  2  0  0  0  0
 11 15  1  0  0  0  0
 11 17  1  0  0  0  0
 12 13  2  0  0  0  0
 12 14  1  0  0  0  0
 13 16  1  0  0  0  0
 14 30  1  0  0  0  0
 15 16  2  0  0  0  0
 16 31  1  0  0  0  0
 17 21  2  0  0  0  0
 19 20  2  0  0  0  0
 19 23  1  0  0  0  0
 19 24  1  0  0  0  0
 20 25  1  0  0  0  0
 20 27  1  0  0  0  0
 21 32  1  0  0  0  0
 22 26  1  0  0  0  0
 24 28  2  0  0  0  0
 25 29  2  0  0  0  0
 25 34  1  0  0  0  0
 26 35  1  0  0  0  0
 27 36  1  0  0  0  0
 27 37  1  0  0  0  0
 27 38  1  0  0  0  0
 28 29  1  0  0  0  0
 28 39  1  0  0  0  0
 29 40  1  0  0  0  0
M  END
> <PUBCHEM_COMPOUND_CID>
122507647

> <PUBCHEM_CONFORMER_RMSD>
0.8

> <PUBCHEM_CONFORMER_DIVERSEORDER>
2
13
12
11
9
8
5
1
6
7
10
3
4

> <PUBCHEM_MMFF94_PARTIAL_CHARGES>
36
1 -0.18
10 -0.62
12 0.08
13 0.08
14 -0.15
15 0.18
16 -0.15
17 0.31
18 1.24
19 0.09
2 -0.34
20 -0.14
21 0.16
22 0.43
23 0.54
24 0.19
25 -0.15
26 0.16
27 0.14
28 -0.15
29 -0.15
3 -0.34
30 0.15
31 0.15
32 0.15
33 0.37
34 0.15
35 0.15
39 0.15
4 -0.19
40 0.15
5 -0.36
6 -0.36
7 -0.57
8 -0.55
9 -0.62

> <PUBCHEM_EFFECTIVE_ROTOR_COUNT>
4.6

> <PUBCHEM_PHARMACOPHORE_FEATURES>
9
1 5 acceptor
1 6 acceptor
1 7 acceptor
1 8 donor
1 9 acceptor
5 5 6 12 13 18 rings
6 11 12 13 14 15 16 rings
6 19 20 24 25 28 29 rings
6 9 10 17 21 22 26 rings

> <PUBCHEM_HEAVY_ATOM_COUNT>
29

> <PUBCHEM_ATOM_DEF_STEREO_COUNT>
0

> <PUBCHEM_ATOM_UDEF_STEREO_COUNT>
0

> <PUBCHEM_BOND_DEF_STEREO_COUNT>
0

> <PUBCHEM_BOND_UDEF_STEREO_COUNT>
0

> <PUBCHEM_ISOTOPIC_ATOM_COUNT>
0

> <PUBCHEM_COMPONENT_COUNT>
1

> <PUBCHEM_CACTVS_TAUTO_COUNT>
28

> <PUBCHEM_CONFORMER_ID>
074D517F00000002

> <PUBCHEM_MMFF94_ENERGY>
88.1181

> <PUBCHEM_FEATURE_SELFOVERLAP>
45.829

> <PUBCHEM_SHAPE_FINGERPRINT>
10299344 5 18410853274158957510
10411042 1 17767116876809902007
10595046 47 18267302213274144254
10835480 77 17918274281492733992
10904742 90 18334011679807528843
11135609 127 18200587120777571232
11135926 11 18113326510109943795
11297750 10 17056102280528345367
11315181 36 17060340751459848635
11456790 92 17967527974512227488
11475781 23 17703520899722896845
11524674 6 15574718010471790377
11646440 116 16515683351557110252
11719270 70 17418376874892090422
11796584 16 18131353033670792350
12236239 1 18334575758925599759
13167372 99 18410013226117141204
13533116 47 17822003178396093098
13740195 50 18336553790025706377
13914758 101 18410294696745851376
14251764 18 18410011048188472462
14933364 13 18410012143574100232
15131766 46 14564817769617622015
15183329 4 17704358766227236552
15276724 80 18187919547864519444
15419008 47 15339114619837578546
15461852 350 17203603822398104613
1577012 14 18409447011624272966
15849732 13 18113901555001786215
16989713 51 16844438526748298007
20157964 124 18411140230215272034
20281389 69 18261111859271848117
20511986 3 18271796952531883822
21130935 74 18186801426513026842
21150785 3 13039185909555460700
21756936 100 18114180857057646883
21781051 124 14057009287134764016
22224240 67 16732984236816688875
23516275 137 18270137716319159026
23536379 177 18412544319042739970
23559900 14 17775277304989473787
23569943 247 17532639149626742634
23576562 1 16343123866163935977
24771293 8 17968936543581214436
249057 3 18343864432893294333
3004659 81 18343586231573362694
3009799 131 16128656344684476899
3178227 256 15502376729760054820
394071 54 16806167795645522148
397830 11 15937553617522198304
4073 2 18114747152579738218
4093350 32 18186799141447968338
4339292 15 17488733615137588503
44555599 121 18411989074118911632
5104073 3 16226900019830682256
5265222 85 17988076832558303934
5385378 56 16588016875579059546
5758199 1 17749390364412004986
59755656 520 17385441046493663027
6328613 192 18412825789624172201
99344 41 18413105061652600678

> <PUBCHEM_SHAPE_MULTIPOLES>
544.3
24.17
2.08
1.04
3.74
0.33
-0.02
-8.77
-1.74
-0.36
0.42
-0.07
0.05
-1.57

> <PUBCHEM_SHAPE_SELFOVERLAP>
1209.928

> <PUBCHEM_SHAPE_VOLUME>
292.6

> <PUBCHEM_COORDINATE_TYPE>
2
5
10

$$$$
