353014
  -OEChem-04232022333D

 31 32  0     1  0  0  0  0  0999 V2000
   -1.6445   -0.7514   -0.7379 O   0  0  0  0  0  0  0  0  0  0  0  0
   -1.2999    2.6612    0.2122 O   0  0  0  0  0  0  0  0  0  0  0  0
   -3.5437    1.0907    1.6737 O   0  0  0  0  0  0  0  0  0  0  0  0
   -3.7781   -2.5991   -0.7237 O   0  0  0  0  0  0  0  0  0  0  0  0
    1.4703    1.8560   -1.4215 O   0  0  0  0  0  0  0  0  0  0  0  0
    5.3588   -0.1919    0.1498 O   0  0  0  0  0  0  0  0  0  0  0  0
    0.5347    0.0721   -0.2953 N   0  0  0  0  0  0  0  0  0  0  0  0
    2.9174    0.4453   -0.3881 N   0  0  0  0  0  0  0  0  0  0  0  0
    4.3948   -1.0048    0.6714 N   0  0  0  0  0  0  0  0  0  0  0  0
   -1.4352    1.2779    0.4854 C   0  0  1  0  0  0  0  0  0  0  0  0
   -2.8884    0.8619    0.4413 C   0  0  1  0  0  0  0  0  0  0  0  0
   -0.8252    0.4258   -0.6189 C   0  0  2  0  0  0  0  0  0  0  0  0
   -2.7628   -0.6227    0.1539 C   0  0  1  0  0  0  0  0  0  0  0  0
   -4.0025   -1.2186   -0.4881 C   0  0  0  0  0  0  0  0  0  0  0  0
    0.7640   -1.0603    0.4711 C   0  0  0  0  0  0  0  0  0  0  0  0
    1.6386    0.8449   -0.7374 C   0  0  0  0  0  0  0  0  0  0  0  0
    1.9859   -1.4619    0.8165 C   0  0  0  0  0  0  0  0  0  0  0  0
    3.1158   -0.6251    0.3355 C   0  0  0  0  0  0  0  0  0  0  0  0
   -0.9992    1.0863    1.4729 H   0  0  0  0  0  0  0  0  0  0  0  0
   -3.4345    1.3900   -0.3496 H   0  0  0  0  0  0  0  0  0  0  0  0
   -0.8425    0.9431   -1.5854 H   0  0  0  0  0  0  0  0  0  0  0  0
   -2.5234   -1.1872    1.0644 H   0  0  0  0  0  0  0  0  0  0  0  0
   -4.2077   -0.7469   -1.4547 H   0  0  0  0  0  0  0  0  0  0  0  0
   -4.8757   -1.1084    0.1621 H   0  0  0  0  0  0  0  0  0  0  0  0
   -1.6941    2.8427   -0.6578 H   0  0  0  0  0  0  0  0  0  0  0  0
   -3.4898    2.0437    1.8590 H   0  0  0  0  0  0  0  0  0  0  0  0
   -0.0934   -1.6270    0.8131 H   0  0  0  0  0  0  0  0  0  0  0  0
   -4.5849   -2.9543   -1.1343 H   0  0  0  0  0  0  0  0  0  0  0  0
    2.1723   -2.3399    1.4202 H   0  0  0  0  0  0  0  0  0  0  0  0
    4.6668   -1.8346    1.1848 H   0  0  0  0  0  0  0  0  0  0  0  0
    5.9312   -0.0375    0.9203 H   0  0  0  0  0  0  0  0  0  0  0  0
  1 12  1  0  0  0  0
  1 13  1  0  0  0  0
  2 10  1  0  0  0  0
  2 25  1  0  0  0  0
  3 11  1  0  0  0  0
  3 26  1  0  0  0  0
  4 14  1  0  0  0  0
  4 28  1  0  0  0  0
  5 16  2  0  0  0  0
  6  9  1  0  0  0  0
  6 31  1  0  0  0  0
  7 12  1  0  0  0  0
  7 15  1  0  0  0  0
  7 16  1  0  0  0  0
  8 16  1  0  0  0  0
  8 18  2  0  0  0  0
  9 18  1  0  0  0  0
  9 30  1  0  0  0  0
 10 11  1  0  0  0  0
 10 12  1  0  0  0  0
 10 19  1  0  0  0  0
 11 13  1  0  0  0  0
 11 20  1  0  0  0  0
 12 21  1  0  0  0  0
 13 14  1  0  0  0  0
 13 22  1  0  0  0  0
 14 23  1  0  0  0  0
 14 24  1  0  0  0  0
 15 17  2  0  0  0  0
 15 27  1  0  0  0  0
 17 18  1  0  0  0  0
 17 29  1  0  0  0  0
M  END
> <PUBCHEM_COMPOUND_CID>
353014

> <PUBCHEM_CONFORMER_RMSD>
0.6

> <PUBCHEM_CONFORMER_DIVERSEORDER>
1
150
112
144
64
196
38
167
97
206
69
186
23
211
210
115
190
178
201
22
6
143
171
98
31
192
44
177
42
119
149
141
215
135
134
103
193
180
199
54
122
204
194
176
70
168
83
140
67
99
189
174
56
117
85
165
124
184
102
154
17
80
125
155
191
153
187
4
160
73
182
90
181
188
57
202
145
207
71
208
197
77
132
94
116
195
214
179
113
72
123
121
106
110
100
60
74
127
148
21
78
126
183
156
62
173
118
159
93
161
8
137
139
101
37
59
162
163
152
88
198
131
109
40
49
200
172
169
10
26
147
16
52
14
105
86
212
41
75
213
33
138
2
50
82
43
203
205
81
39
84
11
146
120
92
151
55
63
95
30
157
15
13
46
19
170
164
166
68
87
129
130
5
29
185
91
3
28
7
12
18
65
20
58
108
45
51
96
89
36
25
175
209
128
32
111
136
27
158
35
61
114
142
24
53
107
47
66
133
79
9
76
104
48
34

> <PUBCHEM_MMFF94_PARTIAL_CHARGES>
25
1 -0.56
10 0.28
11 0.28
12 0.58
13 0.28
14 0.28
15 -0.04
16 0.84
17 -0.14
18 0.49
2 -0.68
25 0.4
26 0.4
27 0.15
28 0.4
29 0.15
3 -0.68
30 0.4
31 0.4
4 -0.68
5 -0.57
6 -0.38
7 -0.47
8 -0.66
9 -0.47

> <PUBCHEM_EFFECTIVE_ROTOR_COUNT>
4

> <PUBCHEM_PHARMACOPHORE_FEATURES>
12
1 1 acceptor
1 2 acceptor
1 2 donor
1 3 acceptor
1 3 donor
1 4 acceptor
1 4 donor
1 5 acceptor
1 8 donor
1 9 donor
5 1 10 11 12 13 rings
6 7 8 15 16 17 18 rings

> <PUBCHEM_HEAVY_ATOM_COUNT>
18

> <PUBCHEM_ATOM_DEF_STEREO_COUNT>
0

> <PUBCHEM_ATOM_UDEF_STEREO_COUNT>
4

> <PUBCHEM_BOND_DEF_STEREO_COUNT>
0

> <PUBCHEM_BOND_UDEF_STEREO_COUNT>
0

> <PUBCHEM_ISOTOPIC_ATOM_COUNT>
0

> <PUBCHEM_COMPONENT_COUNT>
1

> <PUBCHEM_CACTVS_TAUTO_COUNT>
5

> <PUBCHEM_CONFORMER_ID>
000562F600000001

> <PUBCHEM_MMFF94_ENERGY>
52.474

> <PUBCHEM_FEATURE_SELFOVERLAP>
60.949

> <PUBCHEM_SHAPE_FINGERPRINT>
11046707 91 18411975879868010703
11132069 177 18201729409788381137
11578080 2 18192967470299528437
11806522 49 18334571373906376366
12236239 1 18409449189251761127
12251169 10 18336834082646927601
13760787 5 17531254954575475190
13764800 53 16701748150932753505
13862211 1 17967524650418250826
15375462 189 18333735693128635353
15375462 478 18412822482230283620
16945 1 18268436741480205581
17862501 102 18408880750477932610
19050596 39 18408611348337682617
19422 9 18412268362740295583
19433438 48 18409165485129053835
200 152 18259978288711449455
20645477 70 17313099812561961255
21267235 1 18408610279054765239
21339142 126 18335139744161584597
22112679 90 18342748441919173693
22445834 79 18189338974310065609
22646028 28 18408882953516716967
23388829 49 18334014969050623517
23402539 116 18336256886429488214
23557571 272 17703795803399189577
23559900 14 18340756139302002961
26918003 58 17603877684589250745
2748010 2 17473275271148969077
3286 77 18272364330068891400
34934 24 17897158022846976161
77492 1 18409458002545777693

> <PUBCHEM_SHAPE_MULTIPOLES>
320.27
8.11
2.07
1.04
4.61
0.22
0.08
-3.12
0.91
-1.53
-0.18
-0.38
0.2
-1.59

> <PUBCHEM_SHAPE_SELFOVERLAP>
672.161

> <PUBCHEM_SHAPE_VOLUME>
178.8

> <PUBCHEM_COORDINATE_TYPE>
2
5
10

$$$$
