5282379
  -OEChem-05142003503D

 50 50  0     0  0  0  0  0  0999 V2000
    6.1548   -1.5357    1.7576 O   0  0  0  0  0  0  0  0  0  0  0  0
    6.1024   -2.3834   -0.3561 O   0  0  0  0  0  0  0  0  0  0  0  0
   -4.6584    0.6629    0.5917 C   0  0  0  0  0  0  0  0  0  0  0  0
   -5.7876   -0.3212    1.0033 C   0  0  0  0  0  0  0  0  0  0  0  0
   -6.1120   -1.3160   -0.0966 C   0  0  0  0  0  0  0  0  0  0  0  0
   -3.4887   -0.0723   -0.1040 C   0  0  0  0  0  0  0  0  0  0  0  0
   -4.8813   -2.1467   -0.4275 C   0  0  0  0  0  0  0  0  0  0  0  0
   -3.5946   -1.3537   -0.5372 C   0  0  0  0  0  0  0  0  0  0  0  0
   -4.2104    1.3671    1.8959 C   0  0  0  0  0  0  0  0  0  0  0  0
   -5.2430    1.7271   -0.3653 C   0  0  0  0  0  0  0  0  0  0  0  0
   -2.2758    0.7080   -0.2857 C   0  0  0  0  0  0  0  0  0  0  0  0
   -2.4903   -2.1643   -1.1759 C   0  0  0  0  0  0  0  0  0  0  0  0
   -1.0433    0.1969   -0.1334 C   0  0  0  0  0  0  0  0  0  0  0  0
    0.2193    0.9178   -0.2978 C   0  0  0  0  0  0  0  0  0  0  0  0
    0.1413    2.3797   -0.6746 C   0  0  0  0  0  0  0  0  0  0  0  0
    1.4386    0.3600   -0.1336 C   0  0  0  0  0  0  0  0  0  0  0  0
    2.7434    0.9818   -0.2719 C   0  0  0  0  0  0  0  0  0  0  0  0
    3.8899    0.3066   -0.0787 C   0  0  0  0  0  0  0  0  0  0  0  0
    5.2535    0.8385   -0.1868 C   0  0  0  0  0  0  0  0  0  0  0  0
    5.4005    2.2870   -0.5765 C   0  0  0  0  0  0  0  0  0  0  0  0
    6.2795   -0.0047    0.0466 C   0  0  0  0  0  0  0  0  0  0  0  0
    6.1620   -1.4356    0.4065 C   0  0  0  0  0  0  0  0  0  0  0  0
   -6.6967    0.2296    1.2762 H   0  0  0  0  0  0  0  0  0  0  0  0
   -5.4891   -0.8811    1.9008 H   0  0  0  0  0  0  0  0  0  0  0  0
   -6.4672   -0.7947   -0.9929 H   0  0  0  0  0  0  0  0  0  0  0  0
   -6.9257   -1.9771    0.2232 H   0  0  0  0  0  0  0  0  0  0  0  0
   -5.0819   -2.6738   -1.3683 H   0  0  0  0  0  0  0  0  0  0  0  0
   -4.7434   -2.9148    0.3445 H   0  0  0  0  0  0  0  0  0  0  0  0
   -3.7303    0.6607    2.5833 H   0  0  0  0  0  0  0  0  0  0  0  0
   -3.4987    2.1772    1.7011 H   0  0  0  0  0  0  0  0  0  0  0  0
   -5.0667    1.8114    2.4170 H   0  0  0  0  0  0  0  0  0  0  0  0
   -6.1486    2.1796    0.0553 H   0  0  0  0  0  0  0  0  0  0  0  0
   -4.5376    2.5448   -0.5490 H   0  0  0  0  0  0  0  0  0  0  0  0
   -5.5073    1.2984   -1.3382 H   0  0  0  0  0  0  0  0  0  0  0  0
   -2.4140    1.7414   -0.5851 H   0  0  0  0  0  0  0  0  0  0  0  0
   -2.9098   -2.8995   -1.8735 H   0  0  0  0  0  0  0  0  0  0  0  0
   -1.9343   -2.7256   -0.4188 H   0  0  0  0  0  0  0  0  0  0  0  0
   -1.8105   -1.5681   -1.7895 H   0  0  0  0  0  0  0  0  0  0  0  0
   -0.9094   -0.8206    0.2236 H   0  0  0  0  0  0  0  0  0  0  0  0
   -0.4317    2.9302    0.0815 H   0  0  0  0  0  0  0  0  0  0  0  0
    1.0857    2.9124   -0.7731 H   0  0  0  0  0  0  0  0  0  0  0  0
   -0.3690    2.4899   -1.6389 H   0  0  0  0  0  0  0  0  0  0  0  0
    1.4686   -0.6961    0.1378 H   0  0  0  0  0  0  0  0  0  0  0  0
    2.7984    2.0277   -0.5393 H   0  0  0  0  0  0  0  0  0  0  0  0
    3.7953   -0.7439    0.1902 H   0  0  0  0  0  0  0  0  0  0  0  0
    4.9326    2.9425    0.1656 H   0  0  0  0  0  0  0  0  0  0  0  0
    6.4570    2.5712   -0.6389 H   0  0  0  0  0  0  0  0  0  0  0  0
    4.9557    2.4775   -1.5588 H   0  0  0  0  0  0  0  0  0  0  0  0
    7.3016    0.3561   -0.0321 H   0  0  0  0  0  0  0  0  0  0  0  0
    6.0862   -2.4677    2.0560 H   0  0  0  0  0  0  0  0  0  0  0  0
  1 22  1  0  0  0  0
  1 50  1  0  0  0  0
  2 22  2  0  0  0  0
  3  4  1  0  0  0  0
  3  6  1  0  0  0  0
  3  9  1  0  0  0  0
  3 10  1  0  0  0  0
  4  5  1  0  0  0  0
  4 23  1  0  0  0  0
  4 24  1  0  0  0  0
  5  7  1  0  0  0  0
  5 25  1  0  0  0  0
  5 26  1  0  0  0  0
  6  8  2  0  0  0  0
  6 11  1  0  0  0  0
  7  8  1  0  0  0  0
  7 27  1  0  0  0  0
  7 28  1  0  0  0  0
  8 12  1  0  0  0  0
  9 29  1  0  0  0  0
  9 30  1  0  0  0  0
  9 31  1  0  0  0  0
 10 32  1  0  0  0  0
 10 33  1  0  0  0  0
 10 34  1  0  0  0  0
 11 13  2  0  0  0  0
 11 35  1  0  0  0  0
 12 36  1  0  0  0  0
 12 37  1  0  0  0  0
 12 38  1  0  0  0  0
 13 14  1  0  0  0  0
 13 39  1  0  0  0  0
 14 15  1  0  0  0  0
 14 16  2  0  0  0  0
 15 40  1  0  0  0  0
 15 41  1  0  0  0  0
 15 42  1  0  0  0  0
 16 17  1  0  0  0  0
 16 43  1  0  0  0  0
 17 18  2  0  0  0  0
 17 44  1  0  0  0  0
 18 19  1  0  0  0  0
 18 45  1  0  0  0  0
 19 20  1  0  0  0  0
 19 21  2  0  0  0  0
 20 46  1  0  0  0  0
 20 47  1  0  0  0  0
 20 48  1  0  0  0  0
 21 22  1  0  0  0  0
 21 49  1  0  0  0  0
M  END
> <PUBCHEM_COMPOUND_CID>
5282379

> <PUBCHEM_CONFORMER_RMSD>
0.8

> <PUBCHEM_CONFORMER_DIVERSEORDER>
1
37
8
19
4
17
29
15
34
22
14
26
3
33
2
9
36
5
12
11
7
30
24
27
31
16
21
13
32
6
25
35
10
28
23
18
20

> <PUBCHEM_MMFF94_PARTIAL_CHARGES>
25
1 -0.65
11 -0.15
12 0.14
13 -0.15
14 -0.14
15 0.14
16 -0.15
17 -0.15
18 -0.15
19 -0.14
2 -0.57
20 0.14
21 -0.14
22 0.71
3 0.14
35 0.15
39 0.15
43 0.15
44 0.15
45 0.15
49 0.15
50 0.5
6 -0.14
7 0.14
8 -0.28

> <PUBCHEM_EFFECTIVE_ROTOR_COUNT>
5.8

> <PUBCHEM_PHARMACOPHORE_FEATURES>
7
1 1 acceptor
1 15 hydrophobe
1 2 acceptor
1 20 hydrophobe
3 1 2 22 anion
3 3 9 10 hydrophobe
6 3 4 5 6 7 8 rings

> <PUBCHEM_HEAVY_ATOM_COUNT>
22

> <PUBCHEM_ATOM_DEF_STEREO_COUNT>
0

> <PUBCHEM_ATOM_UDEF_STEREO_COUNT>
0

> <PUBCHEM_BOND_DEF_STEREO_COUNT>
4

> <PUBCHEM_BOND_UDEF_STEREO_COUNT>
0

> <PUBCHEM_ISOTOPIC_ATOM_COUNT>
0

> <PUBCHEM_COMPONENT_COUNT>
1

> <PUBCHEM_CACTVS_TAUTO_COUNT>
1

> <PUBCHEM_CONFORMER_ID>
00509A4B00000001

> <PUBCHEM_MMFF94_ENERGY>
62.4904

> <PUBCHEM_FEATURE_SELFOVERLAP>
35.578

> <PUBCHEM_SHAPE_FINGERPRINT>
10 15 16343698859447566312
10299344 5 18411423929594567492
10319926 262 17704066313451111539
10595046 47 18339645671386962004
11315181 36 18271529788301755561
11524674 6 16988562415879100119
11719270 70 17988925548519331310
12236239 1 18409451405428700497
12596602 18 18341613736849391905
12616971 3 18409163320919002990
13288520 33 18409167744883205613
13533116 47 18260268551871788160
13668630 136 17022624208355456923
14251752 14 18260543394617147165
14251764 18 18343585174198660932
14347332 77 18041271059660999604
14420673 8 18411985741076258975
15183329 4 18410293618693333206
15250474 111 18200864188732747222
15326921 28 17982166713094610497
15348495 7 17060047207577615354
15419008 42 17913489034689295124
15716309 27 18408326605344540177
15799311 1 18336560377609193590
16110190 28 18413672404792829647
16120349 21 18199474264522486206
17780758 139 18202281403354135481
17844677 252 18187086139731658684
17857418 61 18409726253745464682
1813 80 17895203198557438820
18927931 339 16515409560466860533
19489759 90 17060340712752395249
20281389 69 18341895207589390897
21033648 29 15410903929059845937
21150785 3 15213310720718865846
220451 1 18410581708135873228
22061861 79 16587737642591113778
22950370 63 18409729586397675268
2303208 19 16370446661441516000
23081809 10 18334299781565245332
23402539 116 18408039623871862941
23522609 53 18192180194278213428
23536379 177 18410576192991741592
23559900 14 18198052780766389297
23569943 247 17750787758135032658
2767999 5 11312053245177955874
3004659 81 18411425012369444574
351380 3 18186516601282035122
3663271 9 18272091621384260736
397830 11 15338262605974630902
4073 2 18043815497150324480
4214541 1 18271810159456059789
4409770 3 18263074419536536821
5104073 3 18201721807300797808
513202 73 17968091971688069332
531348 171 18260824857120464453
559249 180 18410290303278975207
9965369 4 18413952789100703731
999808 66 17822583801960790851

> <PUBCHEM_SHAPE_MULTIPOLES>
441.01
19.81
2.48
1.1
19.09
0.48
-0.44
6.25
-3.71
0.61
0.4
-0.39
0.02
-2.09

> <PUBCHEM_SHAPE_SELFOVERLAP>
887.403

> <PUBCHEM_SHAPE_VOLUME>
259

> <PUBCHEM_COORDINATE_TYPE>
2
5
10

$$$$
