92727
 OpenBabel05112018413D

 94 97  0  0  1  0  0  0  0  0999 V2000
    0.9257    1.3857   -0.2450 O   0  0  0  0  0  0  0  0  0  0  0  0
    1.7312    3.2207    1.6384 O   0  0  0  0  0  0  0  0  0  0  0  0
   -1.3433    1.7469    2.6997 O   0  0  0  0  0  0  0  0  0  0  0  0
    1.9032   -1.8983   -3.6424 O   0  0  0  0  0  0  0  0  0  0  0  0
    0.9794    0.1984   -6.0374 O   0  0  0  0  0  0  0  0  0  0  0  0
   -0.2502    2.6243    4.5646 N   0  0  0  0  0  0  0  0  0  0  0  0
    1.9281    1.6563    3.3099 N   0  0  0  0  0  0  0  0  0  0  0  0
    2.0224    0.1270   -2.6428 N   0  0  0  0  0  0  0  0  0  0  0  0
   -1.6759    0.7908    4.7283 N   0  0  0  0  0  0  0  0  0  0  0  0
    2.8251    0.7583    2.5941 C   0  0  2  0  0  0  0  0  0  0  0  0
    0.4541    3.6035    3.6902 C   0  0  1  0  0  0  0  0  0  0  0  0
    2.1176   -0.0181    1.4171 C   0  0  0  0  0  0  0  0  0  0  0  0
    2.1344    0.6448   -0.0409 C   0  0  1  0  0  0  0  0  0  0  0  0
    1.2669    4.7533    4.3904 C   0  0  0  0  0  0  0  0  0  0  0  0
    2.2604   -0.4166   -1.2338 C   0  0  2  0  0  0  0  0  0  0  0  0
    3.6974   -0.1282    3.5893 C   0  0  0  0  0  0  0  0  0  0  0  0
    1.4020    2.8006    2.7432 C   0  0  0  0  0  0  0  0  0  0  0  0
   -0.6327    2.8957    5.9404 C   0  0  0  0  0  0  0  0  0  0  0  0
   -0.5885    1.6262    6.7648 C   0  0  0  0  0  0  0  0  0  0  0  0
    3.6670   -1.1384   -1.1414 C   0  0  0  0  0  0  0  0  0  0  0  0
   -1.1233    1.7444    3.9026 C   0  0  0  0  0  0  0  0  0  0  0  0
    2.5579    4.3010    5.0874 C   0  0  0  0  0  0  0  0  0  0  0  0
    1.6259    5.8579    3.3757 C   0  0  0  0  0  0  0  0  0  0  0  0
   -0.9508    0.4111    5.9081 C   0  0  0  0  0  0  0  0  0  0  0  0
    3.2116   -0.9647    4.7989 C   0  0  0  0  0  0  0  0  0  0  0  0
    4.7707   -0.1597   -1.4630 C   0  0  0  0  0  0  0  0  0  0  0  0
    1.9458   -0.6611   -3.7840 C   0  0  0  0  0  0  0  0  0  0  0  0
    4.0561   -2.0066    5.2482 C   0  0  0  0  0  0  0  0  0  0  0  0
    2.5162   -0.3260    5.8204 C   0  0  0  0  0  0  0  0  0  0  0  0
    5.3948    0.5921   -0.4599 C   0  0  0  0  0  0  0  0  0  0  0  0
    5.0159    0.1455   -2.8027 C   0  0  0  0  0  0  0  0  0  0  0  0
    2.1065   -0.0524   -5.2149 C   0  0  0  0  0  0  0  0  0  0  0  0
    4.5145   -2.0354    6.5841 C   0  0  0  0  0  0  0  0  0  0  0  0
    3.2160   -0.0965    7.0125 C   0  0  0  0  0  0  0  0  0  0  0  0
    4.0991   -1.0586    7.4806 C   0  0  0  0  0  0  0  0  0  0  0  0
    6.1239    1.7290   -0.8029 C   0  0  0  0  0  0  0  0  0  0  0  0
    5.6646    1.3160   -3.1481 C   0  0  0  0  0  0  0  0  0  0  0  0
    6.2264    2.1128   -2.1364 C   0  0  0  0  0  0  0  0  0  0  0  0
    0.7052   -0.8144   -7.0569 C   0  0  0  0  0  0  0  0  0  0  0  0
   -0.0071   -1.8856   -6.5053 C   0  0  0  0  0  0  0  0  0  0  0  0
    0.0159   -0.1819   -8.1085 C   0  0  0  0  0  0  0  0  0  0  0  0
   -1.2976   -1.5528   -6.0771 C   0  0  0  0  0  0  0  0  0  0  0  0
   -1.3154    0.1469   -7.8130 C   0  0  0  0  0  0  0  0  0  0  0  0
    0.0133   -3.2363   -7.2209 C   0  0  0  0  0  0  0  0  0  0  0  0
    0.1828   -0.6809   -9.5451 C   0  0  0  0  0  0  0  0  0  0  0  0
   -2.0053   -0.6383   -6.8745 C   0  0  0  0  0  0  0  0  0  0  0  0
    3.5674    1.4143    2.1192 H   0  0  0  0  0  0  0  0  0  0  0  0
   -0.3272    4.0737    3.0746 H   0  0  0  0  0  0  0  0  0  0  0  0
    1.0734   -0.1951    1.7012 H   0  0  0  0  0  0  0  0  0  0  0  0
    2.6033   -0.9922    1.3617 H   0  0  0  0  0  0  0  0  0  0  0  0
    2.9416    1.3760   -0.1205 H   0  0  0  0  0  0  0  0  0  0  0  0
    0.6358    5.2412    5.1441 H   0  0  0  0  0  0  0  0  0  0  0  0
    1.4665   -1.1651   -1.0973 H   0  0  0  0  0  0  0  0  0  0  0  0
    1.4984    1.3489    4.1736 H   0  0  0  0  0  0  0  0  0  0  0  0
    4.3362   -0.7751    2.9782 H   0  0  0  0  0  0  0  0  0  0  0  0
    4.3848    0.5885    4.0721 H   0  0  0  0  0  0  0  0  0  0  0  0
   -0.0311    3.6715    6.4146 H   0  0  0  0  0  0  0  0  0  0  0  0
   -1.6848    3.2692    5.9206 H   0  0  0  0  0  0  0  0  0  0  0  0
   -1.2567    1.6880    7.6279 H   0  0  0  0  0  0  0  0  0  0  0  0
    0.4216    1.4785    7.1679 H   0  0  0  0  0  0  0  0  0  0  0  0
    3.8162   -1.5812   -0.1728 H   0  0  0  0  0  0  0  0  0  0  0  0
    3.6983   -1.9729   -1.8562 H   0  0  0  0  0  0  0  0  0  0  0  0
    3.2659    3.8466    4.3865 H   0  0  0  0  0  0  0  0  0  0  0  0
    3.0739    5.1610    5.5345 H   0  0  0  0  0  0  0  0  0  0  0  0
    2.3540    3.5861    5.8877 H   0  0  0  0  0  0  0  0  0  0  0  0
    0.7229    6.2754    2.9185 H   0  0  0  0  0  0  0  0  0  0  0  0
    2.1600    6.6806    3.8649 H   0  0  0  0  0  0  0  0  0  0  0  0
    2.2739    5.4870    2.5757 H   0  0  0  0  0  0  0  0  0  0  0  0
   -1.5099   -0.3448    6.4642 H   0  0  0  0  0  0  0  0  0  0  0  0
   -0.0455   -0.0672    5.5369 H   0  0  0  0  0  0  0  0  0  0  0  0
    1.7667    1.1001   -2.7148 H   0  0  0  0  0  0  0  0  0  0  0  0
   -2.1532    0.0655    4.1986 H   0  0  0  0  0  0  0  0  0  0  0  0
    0.9812    2.1614    0.3541 H   0  0  0  0  0  0  0  0  0  0  0  0
    4.4508   -2.7410    4.5521 H   0  0  0  0  0  0  0  0  0  0  0  0
    1.6724   -1.0165    6.0986 H   0  0  0  0  0  0  0  0  0  0  0  0
    5.2450    0.3636    0.5905 H   0  0  0  0  0  0  0  0  0  0  0  0
    4.6044   -0.4820   -3.5872 H   0  0  0  0  0  0  0  0  0  0  0  0
    2.6034    0.9144   -5.0800 H   0  0  0  0  0  0  0  0  0  0  0  0
    2.8523   -0.6564   -5.7634 H   0  0  0  0  0  0  0  0  0  0  0  0
    5.3089   -2.7206    6.8786 H   0  0  0  0  0  0  0  0  0  0  0  0
    3.2999    0.9159    7.3991 H   0  0  0  0  0  0  0  0  0  0  0  0
    4.5231   -0.9872    8.4796 H   0  0  0  0  0  0  0  0  0  0  0  0
    6.5598    2.3604   -0.0397 H   0  0  0  0  0  0  0  0  0  0  0  0
    5.6939    1.6291   -4.1889 H   0  0  0  0  0  0  0  0  0  0  0  0
    6.7025    3.0396   -2.4103 H   0  0  0  0  0  0  0  0  0  0  0  0
   -1.3453   -1.2746   -5.0093 H   0  0  0  0  0  0  0  0  0  0  0  0
   -1.4989    1.2262   -7.6946 H   0  0  0  0  0  0  0  0  0  0  0  0
   -0.7565   -3.2700   -8.0053 H   0  0  0  0  0  0  0  0  0  0  0  0
    0.9824   -3.4380   -7.6831 H   0  0  0  0  0  0  0  0  0  0  0  0
   -0.2084   -4.0328   -6.5035 H   0  0  0  0  0  0  0  0  0  0  0  0
   -0.3628   -0.0312  -10.2426 H   0  0  0  0  0  0  0  0  0  0  0  0
    1.2317   -0.6923   -9.8474 H   0  0  0  0  0  0  0  0  0  0  0  0
   -0.2322   -1.6906   -9.6628 H   0  0  0  0  0  0  0  0  0  0  0  0
   -2.9764   -1.0095   -7.2351 H   0  0  0  0  0  0  0  0  0  0  0  0
  1 73  1  0  0  0  0
  2 17  2  0  0  0  0
  3 21  2  0  0  0  0
  4 27  2  0  0  0  0
  5 32  1  0  0  0  0
  5 39  1  0  0  0  0
  6 11  1  0  0  0  0
  6 18  1  0  0  0  0
  6 21  1  0  0  0  0
  7 17  1  0  0  0  0
  7 54  1  0  0  0  0
  8 27  1  0  0  0  0
  8 71  1  0  0  0  0
  9 21  1  0  0  0  0
  9 24  1  0  0  0  0
  9 72  1  0  0  0  0
 10  7  1  0  0  0  0
 10 12  1  0  0  0  0
 10 16  1  0  0  0  0
 10 47  1  6  0  0  0
 11 14  1  0  0  0  0
 11 17  1  0  0  0  0
 11 48  1  6  0  0  0
 12 13  1  0  0  0  0
 12 49  1  0  0  0  0
 12 50  1  0  0  0  0
 13  1  1  0  0  0  0
 13 15  1  0  0  0  0
 13 51  1  6  0  0  0
 14 22  1  0  0  0  0
 14 23  1  0  0  0  0
 14 52  1  0  0  0  0
 15  8  1  0  0  0  0
 15 20  1  0  0  0  0
 15 53  1  1  0  0  0
 16 25  1  0  0  0  0
 16 55  1  0  0  0  0
 16 56  1  0  0  0  0
 18 19  1  0  0  0  0
 18 57  1  0  0  0  0
 18 58  1  0  0  0  0
 19 24  1  0  0  0  0
 19 59  1  0  0  0  0
 19 60  1  0  0  0  0
 20 26  1  0  0  0  0
 20 61  1  0  0  0  0
 20 62  1  0  0  0  0
 22 63  1  0  0  0  0
 22 64  1  0  0  0  0
 22 65  1  0  0  0  0
 23 66  1  0  0  0  0
 23 67  1  0  0  0  0
 23 68  1  0  0  0  0
 24 69  1  0  0  0  0
 24 70  1  0  0  0  0
 25 28  2  0  0  0  0
 25 29  1  0  0  0  0
 26 30  2  0  0  0  0
 26 31  1  0  0  0  0
 27 32  1  0  0  0  0
 28 33  1  0  0  0  0
 28 74  1  0  0  0  0
 29 34  2  0  0  0  0
 29 75  1  0  0  0  0
 30 36  1  0  0  0  0
 30 76  1  0  0  0  0
 31 37  2  0  0  0  0
 31 77  1  0  0  0  0
 32 78  1  0  0  0  0
 32 79  1  0  0  0  0
 33 35  2  0  0  0  0
 33 80  1  0  0  0  0
 34 35  1  0  0  0  0
 34 81  1  0  0  0  0
 35 82  1  0  0  0  0
 36 38  2  0  0  0  0
 36 83  1  0  0  0  0
 37 38  1  0  0  0  0
 37 84  1  0  0  0  0
 38 85  1  0  0  0  0
 39 40  2  0  0  0  0
 39 41  1  0  0  0  0
 40 42  1  0  0  0  0
 40 44  1  0  0  0  0
 41 43  2  0  0  0  0
 41 45  1  0  0  0  0
 42 46  2  0  0  0  0
 42 86  1  0  0  0  0
 43 46  1  0  0  0  0
 43 87  1  0  0  0  0
 44 88  1  0  0  0  0
 44 89  1  0  0  0  0
 44 90  1  0  0  0  0
 45 91  1  0  0  0  0
 45 92  1  0  0  0  0
 45 93  1  0  0  0  0
 46 94  1  0  0  0  0
M  END
>  <PUBCHEM_COMPOUND_CID>
92727

>  <PUBCHEM_COMPOUND_CANONICALIZED>
1

>  <PUBCHEM_CACTVS_COMPLEXITY>
940

>  <PUBCHEM_CACTVS_HBOND_ACCEPTOR>
5

>  <PUBCHEM_CACTVS_HBOND_DONOR>
4

>  <PUBCHEM_CACTVS_ROTATABLE_BOND>
15

>  <PUBCHEM_CACTVS_SUBSKEYS>
AAADcfB/uAAAAAAAAAAAAAAAAAAAAAAAAAA8YMEAAAAAAAABUAAAHgAQCAAADTzhmAYzBoPABgCIAiFSEAICCAAgIAAIiIHMCIiOdjKE8T+XeCCu1hOYqAeQwPAOAAACAAAIAAAAAAQAABAAAAAAAAAAAA==

>  <PUBCHEM_IUPAC_OPENEYE_NAME>
(2S)-N-[(1S,3S,4S)-1-benzyl-4-[[2-(2,6-dimethylphenoxy)acetyl]amino]-3-hydroxy-5-phenyl-pentyl]-3-methyl-2-(2-oxohexahydropyrimidin-1-yl)butanamide

>  <PUBCHEM_IUPAC_CAS_NAME>
(2S)-N-[(2S,4S,5S)-5-[[2-(2,6-dimethylphenoxy)-1-oxoethyl]amino]-4-hydroxy-1,6-diphenylhexan-2-yl]-3-methyl-2-(2-oxo-1,3-diazinan-1-yl)butanamide

>  <PUBCHEM_IUPAC_NAME_MARKUP>
(2<I>S</I>)-<I>N</I>-[(2<I>S</I>,4<I>S</I>,5<I>S</I>)-5-[[2-(2,6-dimethylphenoxy)acetyl]amino]-4-hydroxy-1,6-diphenylhexan-2-yl]-3-methyl-2-(2-oxo-1,3-diazinan-1-yl)butanamide

>  <PUBCHEM_IUPAC_NAME>
(2S)-N-[(2S,4S,5S)-5-[[2-(2,6-dimethylphenoxy)acetyl]amino]-4-hydroxy-1,6-diphenylhexan-2-yl]-3-methyl-2-(2-oxo-1,3-diazinan-1-yl)butanamide

>  <PUBCHEM_IUPAC_SYSTEMATIC_NAME>
(2S)-N-[(2S,4S,5S)-5-[2-(2,6-dimethylphenoxy)ethanoylamino]-4-oxidanyl-1,6-diphenyl-hexan-2-yl]-3-methyl-2-(2-oxidanylidene-1,3-diazinan-1-yl)butanamide

>  <PUBCHEM_IUPAC_TRADITIONAL_NAME>
(2S)-N-[(1S,3S,4S)-1-benzyl-4-[[2-(2,6-dimethylphenoxy)acetyl]amino]-3-hydroxy-5-phenyl-pentyl]-2-(2-ketohexahydropyrimidin-1-yl)-3-methyl-butyramide

>  <PUBCHEM_IUPAC_INCHI>
InChI=1S/C37H48N4O5/c1-25(2)34(41-20-12-19-38-37(41)45)36(44)39-30(21-28-15-7-5-8-16-28)23-32(42)31(22-29-17-9-6-10-18-29)40-33(43)24-46-35-26(3)13-11-14-27(35)4/h5-11,13-18,25,30-32,34,42H,12,19-24H2,1-4H3,(H,38,45)(H,39,44)(H,40,43)/t30-,31-,32-,34-/m0/s1

>  <PUBCHEM_IUPAC_INCHIKEY>
KJHKTHWMRKYKJE-SUGCFTRWSA-N

>  <PUBCHEM_XLOGP3_AA>
5.9

>  <PUBCHEM_EXACT_MASS>
628.362471

>  <PUBCHEM_MOLECULAR_FORMULA>
C37H48N4O5

>  <PUBCHEM_MOLECULAR_WEIGHT>
628.8

>  <PUBCHEM_OPENEYE_CAN_SMILES>
CC1=C(C(=CC=C1)C)OCC(=O)NC(CC2=CC=CC=C2)C(CC(CC3=CC=CC=C3)NC(=O)C(C(C)C)N4CCCNC4=O)O

>  <PUBCHEM_OPENEYE_ISO_SMILES>
CC1=C(C(=CC=C1)C)OCC(=O)N[C@@H](CC2=CC=CC=C2)[C@H](C[C@H](CC3=CC=CC=C3)NC(=O)[C@H](C(C)C)N4CCCNC4=O)O

>  <PUBCHEM_CACTVS_TPSA>
120

>  <PUBCHEM_MONOISOTOPIC_WEIGHT>
628.362471

>  <PUBCHEM_TOTAL_CHARGE>
0

>  <PUBCHEM_HEAVY_ATOM_COUNT>
46

>  <PUBCHEM_ATOM_DEF_STEREO_COUNT>
4

>  <PUBCHEM_ATOM_UDEF_STEREO_COUNT>
0

>  <PUBCHEM_BOND_DEF_STEREO_COUNT>
0

>  <PUBCHEM_BOND_UDEF_STEREO_COUNT>
0

>  <PUBCHEM_ISOTOPIC_ATOM_COUNT>
0

>  <PUBCHEM_COMPONENT_COUNT>
1

>  <PUBCHEM_CACTVS_TAUTO_COUNT>
-1

>  <PUBCHEM_COORDINATE_TYPE>
1
5
255

>  <PUBCHEM_BONDANNOTATIONS>
13  1  6
11  17  5
25  28  8
25  29  8
26  30  8
26  31  8
28  33  8
29  34  8
30  36  8
31  37  8
33  35  8
34  35  8
36  38  8
37  38  8
39  40  8
39  41  8
40  42  8
41  43  8
42  46  8
43  46  8
10  7  6
15  8  5

$$$$
