153241
  -OEChem-05112005213D

 57 60  0     1  0  0  0  0  0999 V2000
   -5.3904    3.9569   -1.9680 O   0  0  0  0  0  0  0  0  0  0  0  0
   -5.2266    2.1262    0.4458 O   0  0  0  0  0  0  0  0  0  0  0  0
   -3.2896    1.3199    1.3799 O   0  0  0  0  0  0  0  0  0  0  0  0
    3.8787    1.2933    1.4405 O   0  0  0  0  0  0  0  0  0  0  0  0
    7.1004    0.5772   -0.9924 O   0  0  0  0  0  0  0  0  0  0  0  0
   -0.0911   -1.0070    0.6337 O   0  0  0  0  0  0  0  0  0  0  0  0
   -5.2100    0.0244    1.2545 N   0  0  0  0  0  0  0  0  0  0  0  0
   -0.8299   -2.7892   -0.6955 N   0  0  0  0  0  0  0  0  0  0  0  0
    1.3824   -2.1327   -0.7914 N   0  0  0  0  0  0  0  0  0  0  0  0
    8.0795    1.6606    0.7346 N   0  0  0  0  0  0  0  0  0  0  0  0
   -4.5813    3.3669    0.1801 C   0  0  1  0  0  0  0  0  0  0  0  0
   -3.4719    3.1675   -0.8233 C   0  0  0  0  0  0  0  0  0  0  0  0
   -5.5376    4.2692   -0.5720 C   0  0  0  0  0  0  0  0  0  0  0  0
   -4.2322    3.1277   -2.1338 C   0  0  0  0  0  0  0  0  0  0  0  0
   -4.4635    1.1672    1.0589 C   0  0  0  0  0  0  0  0  0  0  0  0
   -4.6953   -1.1728    1.8784 C   0  0  0  0  0  0  0  0  0  0  0  0
   -4.0927   -2.1141    0.8760 C   0  0  0  0  0  0  0  0  0  0  0  0
   -2.7433   -2.0105    0.5595 C   0  0  0  0  0  0  0  0  0  0  0  0
   -2.1837   -2.8858   -0.3711 C   0  0  0  0  0  0  0  0  0  0  0  0
   -4.8906   -3.0807    0.2750 C   0  0  0  0  0  0  0  0  0  0  0  0
   -2.9775   -3.8586   -0.9788 C   0  0  0  0  0  0  0  0  0  0  0  0
   -4.3310   -3.9560   -0.6558 C   0  0  0  0  0  0  0  0  0  0  0  0
    2.6051   -1.4555   -0.5706 C   0  0  0  0  0  0  0  0  0  0  0  0
    4.9987   -0.1302   -0.1398 C   0  0  0  0  0  0  0  0  0  0  0  0
    3.8509    0.2613    0.5493 C   0  0  0  0  0  0  0  0  0  0  0  0
    2.6454   -0.4061    0.3323 C   0  0  0  0  0  0  0  0  0  0  0  0
    3.7357   -1.8567   -1.2628 C   0  0  0  0  0  0  0  0  0  0  0  0
    4.9411   -1.1892   -1.0458 C   0  0  0  0  0  0  0  0  0  0  0  0
    0.1357   -1.8815   -0.1963 C   0  0  0  0  0  0  0  0  0  0  0  0
    6.2571    0.5480    0.0700 C   0  0  0  0  0  0  0  0  0  0  0  0
    6.8445    1.2005    1.1139 C   0  0  0  0  0  0  0  0  0  0  0  0
    3.6090    2.5964    0.9294 C   0  0  0  0  0  0  0  0  0  0  0  0
    8.1742    1.2635   -0.5143 C   0  0  0  0  0  0  0  0  0  0  0  0
   -4.2575    3.8145    1.1255 H   0  0  0  0  0  0  0  0  0  0  0  0
   -2.8186    4.0487   -0.8168 H   0  0  0  0  0  0  0  0  0  0  0  0
   -2.8418    2.2829   -0.7195 H   0  0  0  0  0  0  0  0  0  0  0  0
   -6.5842    4.1270   -0.2879 H   0  0  0  0  0  0  0  0  0  0  0  0
   -5.2686    5.3233   -0.4479 H   0  0  0  0  0  0  0  0  0  0  0  0
   -4.5767    2.1137   -2.3638 H   0  0  0  0  0  0  0  0  0  0  0  0
   -3.6365    3.4927   -2.9753 H   0  0  0  0  0  0  0  0  0  0  0  0
   -5.5276   -1.6525    2.4060 H   0  0  0  0  0  0  0  0  0  0  0  0
   -3.9554   -0.8964    2.6391 H   0  0  0  0  0  0  0  0  0  0  0  0
   -6.1720    0.0207    0.9287 H   0  0  0  0  0  0  0  0  0  0  0  0
   -2.1836   -1.2392    1.0676 H   0  0  0  0  0  0  0  0  0  0  0  0
   -5.9462   -3.1645    0.5179 H   0  0  0  0  0  0  0  0  0  0  0  0
   -2.5549   -4.5472   -1.7061 H   0  0  0  0  0  0  0  0  0  0  0  0
   -4.9492   -4.7130   -1.1293 H   0  0  0  0  0  0  0  0  0  0  0  0
   -0.4960   -3.4614   -1.3816 H   0  0  0  0  0  0  0  0  0  0  0  0
    1.7997   -0.0499    0.9013 H   0  0  0  0  0  0  0  0  0  0  0  0
    3.7017   -2.6814   -1.9693 H   0  0  0  0  0  0  0  0  0  0  0  0
    5.8209   -1.5220   -1.5914 H   0  0  0  0  0  0  0  0  0  0  0  0
    1.4202   -2.8930   -1.4656 H   0  0  0  0  0  0  0  0  0  0  0  0
    6.4716    1.3653    2.1140 H   0  0  0  0  0  0  0  0  0  0  0  0
    3.7752    3.3201    1.7322 H   0  0  0  0  0  0  0  0  0  0  0  0
    4.2736    2.8416    0.0951 H   0  0  0  0  0  0  0  0  0  0  0  0
    2.5654    2.6666    0.6068 H   0  0  0  0  0  0  0  0  0  0  0  0
    8.9936    1.4147   -1.2007 H   0  0  0  0  0  0  0  0  0  0  0  0
  1 13  1  0  0  0  0
  1 14  1  0  0  0  0
  2 11  1  0  0  0  0
  2 15  1  0  0  0  0
  3 15  2  0  0  0  0
  4 25  1  0  0  0  0
  4 32  1  0  0  0  0
  5 30  1  0  0  0  0
  5 33  1  0  0  0  0
  6 29  2  0  0  0  0
  7 15  1  0  0  0  0
  7 16  1  0  0  0  0
  7 43  1  0  0  0  0
  8 19  1  0  0  0  0
  8 29  1  0  0  0  0
  8 48  1  0  0  0  0
  9 23  1  0  0  0  0
  9 29  1  0  0  0  0
  9 52  1  0  0  0  0
 10 31  1  0  0  0  0
 10 33  2  0  0  0  0
 11 12  1  0  0  0  0
 11 13  1  0  0  0  0
 11 34  1  0  0  0  0
 12 14  1  0  0  0  0
 12 35  1  0  0  0  0
 12 36  1  0  0  0  0
 13 37  1  0  0  0  0
 13 38  1  0  0  0  0
 14 39  1  0  0  0  0
 14 40  1  0  0  0  0
 16 17  1  0  0  0  0
 16 41  1  0  0  0  0
 16 42  1  0  0  0  0
 17 18  2  0  0  0  0
 17 20  1  0  0  0  0
 18 19  1  0  0  0  0
 18 44  1  0  0  0  0
 19 21  2  0  0  0  0
 20 22  2  0  0  0  0
 20 45  1  0  0  0  0
 21 22  1  0  0  0  0
 21 46  1  0  0  0  0
 22 47  1  0  0  0  0
 23 26  2  0  0  0  0
 23 27  1  0  0  0  0
 24 25  2  0  0  0  0
 24 28  1  0  0  0  0
 24 30  1  0  0  0  0
 25 26  1  0  0  0  0
 26 49  1  0  0  0  0
 27 28  2  0  0  0  0
 27 50  1  0  0  0  0
 28 51  1  0  0  0  0
 30 31  2  0  0  0  0
 31 53  1  0  0  0  0
 32 54  1  0  0  0  0
 32 55  1  0  0  0  0
 32 56  1  0  0  0  0
 33 57  1  0  0  0  0
M  END
> <PUBCHEM_COMPOUND_CID>
153241

> <PUBCHEM_CONFORMER_RMSD>
1.2

> <PUBCHEM_CONFORMER_DIVERSEORDER>
1
37
89
104
92
61
3
51
67
98
57
85
45
75
54
90
36
82
27
103
70
14
73
88
60
102
80
35
23
20
72
65
42
113
100
44
112
19
96
50
59
81
47
101
77
12
99
78
62
76
110
34
109
68
31
106
8
11
108
91
66
55
86
30
53
111
4
105
69
107
87
39
63
6
83
94
74
46
95
5
40
33
71
32
41
97
52
9
114
22
10
48
93
43
38
25
56
17
79
21
49
58
7
24
84
64
2
18
26
15
13
28
16
29

> <PUBCHEM_MMFF94_PARTIAL_CHARGES>
44
1 -0.56
10 -0.57
11 0.28
13 0.28
14 0.28
15 0.78
16 0.44
17 -0.14
18 -0.15
19 0.12
2 -0.43
20 -0.15
21 -0.15
22 -0.15
23 0.12
24 0.05
25 0.08
26 -0.15
27 -0.15
28 -0.15
29 0.69
3 -0.57
30 0.09
31 0.08
32 0.28
33 0.33
4 -0.36
43 0.37
44 0.15
45 0.15
46 0.15
47 0.15
48 0.37
49 0.15
5 -0.28
50 0.15
51 0.15
52 0.37
53 0.15
57 0.15
6 -0.57
7 -0.73
8 -0.55
9 -0.55

> <PUBCHEM_EFFECTIVE_ROTOR_COUNT>
12

> <PUBCHEM_PHARMACOPHORE_FEATURES>
11
1 1 acceptor
1 3 acceptor
1 4 acceptor
1 6 acceptor
1 7 donor
1 8 donor
1 9 donor
5 1 11 12 13 14 rings
5 5 10 30 31 33 rings
6 17 18 19 20 21 22 rings
6 23 24 25 26 27 28 rings

> <PUBCHEM_HEAVY_ATOM_COUNT>
33

> <PUBCHEM_ATOM_DEF_STEREO_COUNT>
1

> <PUBCHEM_ATOM_UDEF_STEREO_COUNT>
0

> <PUBCHEM_BOND_DEF_STEREO_COUNT>
0

> <PUBCHEM_BOND_UDEF_STEREO_COUNT>
0

> <PUBCHEM_ISOTOPIC_ATOM_COUNT>
0

> <PUBCHEM_COMPONENT_COUNT>
1

> <PUBCHEM_CACTVS_TAUTO_COUNT>
6

> <PUBCHEM_CONFORMER_ID>
0002569900000001

> <PUBCHEM_MMFF94_ENERGY>
95.5299

> <PUBCHEM_FEATURE_SELFOVERLAP>
55.872

> <PUBCHEM_SHAPE_FINGERPRINT>
100830 39 18341897402660148456
10087517 78 18337393837134339007
10290309 65 18341901731840171495
10864689 126 18122068593812624196
10930396 42 18041008362766416323
13947947 63 17531796953298858945
14202776 33 18261678163657712813
14294032 229 18408890672448349532
14415360 78 18200035020006355793
14512766 119 18341903982560692916
15328684 2 18187348944822449480
15338160 23 18334293180010250357
15419008 145 18338789118059530042
19304152 47 18114474409107795915
19309040 13 16198204755268514955
21033648 144 18272374144195750319
21033648 29 18188216373186240429
21315764 268 18341619200585998603
21360443 126 18408880711918568996
21927370 108 18120381119191779683
23569914 2 17484759897729640928
25019877 29 17345776182714843687
3418910 222 17830750002967480214
376196 1 17830177905752135363
437795 83 18343293799238067477
437795 96 18411697673414569129
44249763 50 18412822490872959024
508706 21 18411695496197887747
6697151 62 17129310741139101150

> <PUBCHEM_SHAPE_MULTIPOLES>
623.98
21.33
5.83
1.51
33.42
2.03
-0.14
14.35
0.84
-14.46
-2.5
-1.28
0.7
3.46

> <PUBCHEM_SHAPE_SELFOVERLAP>
1350.144

> <PUBCHEM_SHAPE_VOLUME>
341.4

> <PUBCHEM_COORDINATE_TYPE>
2
5
10

$$$$
