24748573
  -OEChem-05152010083D

 37 40  0     0  0  0  0  0  0999 V2000
    3.7951    3.0592   -2.1333 Cl  0  0  0  0  0  0  0  0  0  0  0  0
   -5.1930    2.9349   -0.0285 O   0  0  0  0  0  0  0  0  0  0  0  0
   -3.2693    4.0382    0.4701 O   0  0  0  0  0  0  0  0  0  0  0  0
    0.1062    0.2545    0.4570 N   0  0  0  0  0  0  0  0  0  0  0  0
    2.1268   -0.9315    0.6151 N   0  0  0  0  0  0  0  0  0  0  0  0
   -1.2255   -4.5335   -0.5078 N   0  0  0  0  0  0  0  0  0  0  0  0
   -1.9800   -0.8483   -0.0666 C   0  0  0  0  0  0  0  0  0  0  0  0
   -1.2915   -2.1034   -0.1439 C   0  0  0  0  0  0  0  0  0  0  0  0
    0.0947   -2.1393    0.0851 C   0  0  0  0  0  0  0  0  0  0  0  0
   -1.2169    0.3022    0.2405 C   0  0  0  0  0  0  0  0  0  0  0  0
    0.7290   -0.9402    0.3777 C   0  0  0  0  0  0  0  0  0  0  0  0
   -3.3716   -0.6912   -0.2780 C   0  0  0  0  0  0  0  0  0  0  0  0
   -1.8546    1.5367    0.3235 C   0  0  0  0  0  0  0  0  0  0  0  0
    0.8017   -3.3467    0.0184 C   0  0  0  0  0  0  0  0  0  0  0  0
   -1.8801   -3.3487   -0.4358 C   0  0  0  0  0  0  0  0  0  0  0  0
   -3.2258    1.6730    0.1126 C   0  0  0  0  0  0  0  0  0  0  0  0
   -3.9871    0.5560   -0.1893 C   0  0  0  0  0  0  0  0  0  0  0  0
    3.1169    0.0399    0.4019 C   0  0  0  0  0  0  0  0  0  0  0  0
    0.1007   -4.5008   -0.2783 C   0  0  0  0  0  0  0  0  0  0  0  0
    2.9805    0.9578   -0.6396 C   0  0  0  0  0  0  0  0  0  0  0  0
    4.2355    0.0900    1.2336 C   0  0  0  0  0  0  0  0  0  0  0  0
   -3.8531    2.9814    0.2077 C   0  0  0  0  0  0  0  0  0  0  0  0
    3.9626    1.9259   -0.8491 C   0  0  0  0  0  0  0  0  0  0  0  0
    5.2177    1.0580    1.0242 C   0  0  0  0  0  0  0  0  0  0  0  0
    5.0812    1.9759   -0.0172 C   0  0  0  0  0  0  0  0  0  0  0  0
   -4.0019   -1.5441   -0.5168 H   0  0  0  0  0  0  0  0  0  0  0  0
   -1.2572    2.4167    0.5604 H   0  0  0  0  0  0  0  0  0  0  0  0
    1.8719   -3.4218    0.1783 H   0  0  0  0  0  0  0  0  0  0  0  0
    2.4253   -1.6770    1.2382 H   0  0  0  0  0  0  0  0  0  0  0  0
   -2.9440   -3.4433   -0.6305 H   0  0  0  0  0  0  0  0  0  0  0  0
   -5.0580    0.6050   -0.3632 H   0  0  0  0  0  0  0  0  0  0  0  0
    0.6064   -5.4584   -0.3429 H   0  0  0  0  0  0  0  0  0  0  0  0
    2.1194    0.9194   -1.3029 H   0  0  0  0  0  0  0  0  0  0  0  0
    4.3538   -0.6181    2.0498 H   0  0  0  0  0  0  0  0  0  0  0  0
    6.0885    1.0971    1.6722 H   0  0  0  0  0  0  0  0  0  0  0  0
    5.8544    2.7247   -0.1685 H   0  0  0  0  0  0  0  0  0  0  0  0
   -5.6062    3.8221    0.0376 H   0  0  0  0  0  0  0  0  0  0  0  0
  1 23  1  0  0  0  0
  2 22  1  0  0  0  0
  2 37  1  0  0  0  0
  3 22  2  0  0  0  0
  4 10  1  0  0  0  0
  4 11  2  0  0  0  0
  5 11  1  0  0  0  0
  5 18  1  0  0  0  0
  5 29  1  0  0  0  0
  6 15  2  0  0  0  0
  6 19  1  0  0  0  0
  7  8  1  0  0  0  0
  7 10  2  0  0  0  0
  7 12  1  0  0  0  0
  8  9  2  0  0  0  0
  8 15  1  0  0  0  0
  9 11  1  0  0  0  0
  9 14  1  0  0  0  0
 10 13  1  0  0  0  0
 12 17  2  0  0  0  0
 12 26  1  0  0  0  0
 13 16  2  0  0  0  0
 13 27  1  0  0  0  0
 14 19  2  0  0  0  0
 14 28  1  0  0  0  0
 15 30  1  0  0  0  0
 16 17  1  0  0  0  0
 16 22  1  0  0  0  0
 17 31  1  0  0  0  0
 18 20  2  0  0  0  0
 18 21  1  0  0  0  0
 19 32  1  0  0  0  0
 20 23  1  0  0  0  0
 20 33  1  0  0  0  0
 21 24  2  0  0  0  0
 21 34  1  0  0  0  0
 23 25  2  0  0  0  0
 24 25  1  0  0  0  0
 24 35  1  0  0  0  0
 25 36  1  0  0  0  0
M  END
> <PUBCHEM_COMPOUND_CID>
24748573

> <PUBCHEM_CONFORMER_RMSD>
0.6

> <PUBCHEM_CONFORMER_DIVERSEORDER>
1
28
20
13
24
33
27
18
35
6
8
14
21
22
12
17
23
15
32
9
2
10
30
31
3
19
26
11
4
29
25
5
7
16
34

> <PUBCHEM_MMFF94_PARTIAL_CHARGES>
34
1 -0.18
10 0.31
11 0.41
12 -0.15
13 -0.15
14 -0.15
15 0.16
16 0.09
17 -0.15
18 0.1
19 0.16
2 -0.65
20 -0.15
21 -0.15
22 0.63
23 0.18
24 -0.15
25 -0.15
26 0.15
27 0.15
28 0.15
29 0.4
3 -0.57
30 0.15
31 0.15
32 0.15
33 0.15
34 0.15
35 0.15
36 0.15
37 0.5
4 -0.62
5 -0.6
6 -0.62

> <PUBCHEM_EFFECTIVE_ROTOR_COUNT>
3

> <PUBCHEM_PHARMACOPHORE_FEATURES>
10
1 2 acceptor
1 3 acceptor
1 5 donor
1 6 acceptor
3 2 3 22 anion
3 4 5 11 cation
6 18 20 21 23 24 25 rings
6 4 7 8 9 10 11 rings
6 6 8 9 14 15 19 rings
6 7 10 12 13 16 17 rings

> <PUBCHEM_HEAVY_ATOM_COUNT>
25

> <PUBCHEM_ATOM_DEF_STEREO_COUNT>
0

> <PUBCHEM_ATOM_UDEF_STEREO_COUNT>
0

> <PUBCHEM_BOND_DEF_STEREO_COUNT>
0

> <PUBCHEM_BOND_UDEF_STEREO_COUNT>
0

> <PUBCHEM_ISOTOPIC_ATOM_COUNT>
0

> <PUBCHEM_COMPONENT_COUNT>
1

> <PUBCHEM_CACTVS_TAUTO_COUNT>
2

> <PUBCHEM_CONFORMER_ID>
0179A21D00000001

> <PUBCHEM_MMFF94_ENERGY>
96.4066

> <PUBCHEM_FEATURE_SELFOVERLAP>
50.858

> <PUBCHEM_SHAPE_FINGERPRINT>
10319926 262 17984115306144997632
10411042 1 17619061076432855371
10937287 8 18411700946042030789
1100329 8 17978228584813454059
12107183 9 18263911178112822442
12173636 292 18412257371829236567
12390115 104 18272944799383979841
12553582 1 17618782895970237466
12788726 201 17975419327987876138
12978246 48 18335706065200434425
13140716 1 18049159170611096219
13617811 41 18338783629086479293
138480 1 17475513872122127523
13911987 19 18264756814076045367
13965767 371 18042400236311456076
14508225 48 17550654948037008471
14767858 380 18269253803769774951
14790565 3 18412266129684817145
15042514 8 18193558002448353043
15163728 17 18339378382539335820
15297060 5 18272376326102992912
15439362 3 18268713814584825790
16087824 20 18268424802563808591
16988056 13 17328298048260525509
17818456 19 18409160039754107096
18785283 64 18049444734370090819
19427546 62 18193557771078443691
20101258 96 17688319296801933386
20715895 44 18119239567648507013
20739085 24 17974848372331057122
21033650 10 17702965685348752472
21049683 271 17617112312721661958
22149856 69 18196391243057043353
22907989 373 18122053475374651222
23366157 5 18046627798528122459
23557571 272 17985272021946380590
23558518 356 18334573581641652578
23559900 14 17836359346658107499
245318 6 17968394406153196796
283562 15 18341888628459038227
3091708 16 9339617375605662715
394222 165 18189046508480773523
474 4 18263083219211667969
5895379 119 18265053716596570052
6034566 193 18337974353683654641
6058803 2 18043241543685804474
6523845 18 17981082718750033648
6700243 42 17407716211891026046
7064713 232 18408877434916602512
7808743 9 18339358673346007488
9981440 41 18409728439625427667

> <PUBCHEM_SHAPE_MULTIPOLES>
489.68
9.88
5.71
1.04
8.26
3.1
0.3
-11.12
-0.16
-5.81
1.11
1.42
-0.55
-2.01

> <PUBCHEM_SHAPE_SELFOVERLAP>
1093.031

> <PUBCHEM_SHAPE_VOLUME>
260

> <PUBCHEM_COORDINATE_TYPE>
2
5
10

$$$$
