3194
 OpenBabel05112018433D

 25 27  0  0  0  0  0  0  0  0999 V2000
    0.8298    0.2434   -0.2764 Se  0  0  0  0  0  0  0  0  0  0  0  0
    5.7296    5.2349   -5.2012 O   0  0  0  0  0  0  0  0  0  0  0  0
    5.0577    3.4230   -3.4135 N   0  0  0  0  0  0  0  0  0  0  0  0
    3.3727    4.0403   -4.0226 C   0  0  0  0  0  0  0  0  0  0  0  0
    3.1898    0.4580   -0.4881 C   0  0  0  0  0  0  0  0  0  0  0  0
    4.8542    4.2591   -4.2384 C   0  0  0  0  0  0  0  0  0  0  0  0
    6.1713    2.4805   -2.4825 C   0  0  0  0  0  0  0  0  0  0  0  0
    2.8508    4.0078   -3.9905 C   0  0  0  0  0  0  0  0  0  0  0  0
    3.7656    0.4880   -0.5177 C   0  0  0  0  0  0  0  0  0  0  0  0
    8.2531   -0.9007   -0.0102 C   0  0  0  0  0  0  0  0  0  0  0  0
    6.9850    2.9596   -2.3255 C   0  0  0  0  0  0  0  0  0  0  0  0
    3.2991    2.5065   -2.5093 C   0  0  0  0  0  0  0  0  0  0  0  0
    3.3868    1.9227   -1.9332 C   0  0  0  0  0  0  0  0  0  0  0  0
    8.1540   -0.9553   -0.0308 C   0  0  0  0  0  0  0  0  0  0  0  0
    7.4285    1.6467   -1.5325 C   0  0  0  0  0  0  0  0  0  0  0  0
    7.6723    0.8848   -1.0785 C   0  0  0  0  0  0  0  0  0  0  0  0
    1.6837    3.7820   -3.7677 H   0  0  0  0  0  0  0  0  0  0  0  0
    4.5235    0.5648   -0.5936 H   0  0  0  0  0  0  0  0  0  0  0  0
    9.8433   -0.3941    0.4878 H   0  0  0  0  0  0  0  0  0  0  0  0
    7.7117    3.2931   -2.1437 H   0  0  0  0  0  0  0  0  0  0  0  0
    4.2961    2.5447   -2.5470 H   0  0  0  0  0  0  0  0  0  0  0  0
    1.8754    1.7888   -1.8012 H   0  0  0  0  0  0  0  0  0  0  0  0
    6.8900   -1.3705   -0.4211 H   0  0  0  0  0  0  0  0  0  0  0  0
    6.0368    0.9880   -1.8714 H   0  0  0  0  0  0  0  0  0  0  0  0
    8.9116    1.5239   -0.8002 H   0  0  0  0  0  0  0  0  0  0  0  0
  1  3  1  0  0  0  0
  1  5  1  0  0  0  0
  2  6  2  0  0  0  0
  3  6  1  0  0  0  0
  3  7  1  0  0  0  0
  4  5  1  0  0  0  0
  4  6  1  0  0  0  0
  4  8  2  0  0  0  0
  5  9  2  0  0  0  0
  7 10  2  0  0  0  0
  7 11  1  0  0  0  0
  8 12  1  0  0  0  0
  8 17  1  0  0  0  0
  9 13  1  0  0  0  0
  9 18  1  0  0  0  0
 10 14  1  0  0  0  0
 10 19  1  0  0  0  0
 11 15  2  0  0  0  0
 11 20  1  0  0  0  0
 12 13  2  0  0  0  0
 12 21  1  0  0  0  0
 13 22  1  0  0  0  0
 14 16  2  0  0  0  0
 14 23  1  0  0  0  0
 15 16  1  0  0  0  0
 15 24  1  0  0  0  0
 16 25  1  0  0  0  0
M  END
>  <PUBCHEM_COMPOUND_CID>
3194

>  <PUBCHEM_COMPOUND_CANONICALIZED>
1

>  <PUBCHEM_CACTVS_COMPLEXITY>
275

>  <PUBCHEM_CACTVS_HBOND_ACCEPTOR>
1

>  <PUBCHEM_CACTVS_HBOND_DONOR>
0

>  <PUBCHEM_CACTVS_ROTATABLE_BOND>
1

>  <PUBCHEM_CACTVS_SUBSKEYS>
AAADccByIAAAAAAAIAAAAAAAAAAAAWAAAAAwYAAAAAAAAFgBQAAAHgCAAAAADAiBmAAwwIIAAACIAiVSUACCAAAlAgAIiAEAZMgIIDLAlZGEIQhghADIyYcYiACOAAAAAAAAAAAAAAAAAAAAAAAAAAAAAA==

>  <PUBCHEM_IUPAC_OPENEYE_NAME>
2-phenyl-1,2-benzoselenazol-3-one

>  <PUBCHEM_IUPAC_CAS_NAME>
2-phenyl-1,2-benzoselenazol-3-one

>  <PUBCHEM_IUPAC_NAME_MARKUP>
2-phenyl-1,2-benzoselenazol-3-one

>  <PUBCHEM_IUPAC_NAME>
2-phenyl-1,2-benzoselenazol-3-one

>  <PUBCHEM_IUPAC_SYSTEMATIC_NAME>
2-phenyl-1,2-benzoselenazol-3-one

>  <PUBCHEM_IUPAC_TRADITIONAL_NAME>
2-phenyl-1,2-benzoselenazol-3-one

>  <PUBCHEM_IUPAC_INCHI>
InChI=1S/C13H9NOSe/c15-13-11-8-4-5-9-12(11)16-14(13)10-6-2-1-3-7-10/h1-9H

>  <PUBCHEM_IUPAC_INCHIKEY>
DYEFUKCXAQOFHX-UHFFFAOYSA-N

>  <PUBCHEM_EXACT_MASS>
274.98494

>  <PUBCHEM_MOLECULAR_FORMULA>
C13H9NOSe

>  <PUBCHEM_MOLECULAR_WEIGHT>
274.2

>  <PUBCHEM_OPENEYE_CAN_SMILES>
C1=CC=C(C=C1)N2C(=O)C3=CC=CC=C3[Se]2

>  <PUBCHEM_OPENEYE_ISO_SMILES>
C1=CC=C(C=C1)N2C(=O)C3=CC=CC=C3[Se]2

>  <PUBCHEM_CACTVS_TPSA>
20.3

>  <PUBCHEM_MONOISOTOPIC_WEIGHT>
274.98494

>  <PUBCHEM_TOTAL_CHARGE>
0

>  <PUBCHEM_HEAVY_ATOM_COUNT>
16

>  <PUBCHEM_ATOM_DEF_STEREO_COUNT>
0

>  <PUBCHEM_ATOM_UDEF_STEREO_COUNT>
0

>  <PUBCHEM_BOND_DEF_STEREO_COUNT>
0

>  <PUBCHEM_BOND_UDEF_STEREO_COUNT>
0

>  <PUBCHEM_ISOTOPIC_ATOM_COUNT>
0

>  <PUBCHEM_COMPONENT_COUNT>
1

>  <PUBCHEM_CACTVS_TAUTO_COUNT>
-1

>  <PUBCHEM_COORDINATE_TYPE>
1
5
255

>  <PUBCHEM_BONDANNOTATIONS>
1  3  8
1  5  8
10  14  8
11  15  8
12  13  8
14  16  8
15  16  8
3  6  8
4  5  8
4  6  8
4  8  8
5  9  8
7  10  8
7  11  8
8  12  8
9  13  8

$$$$
