5361
 OpenBabel05112018443D

126133  0  0  0  0  0  0  0  0999 V2000
   -8.7079   -3.8913   11.0805 S   0  0  0  0  0  0  0  0  0  0  0  0
    7.9913    2.4724   10.5319 S   0  0  0  0  0  0  0  0  0  0  0  0
   -3.4423   -5.7883   10.2844 S   0  0  0  0  0  0  0  0  0  0  0  0
   11.2208    2.7525   13.4440 S   0  0  0  0  0  0  0  0  0  0  0  0
   -5.7360   -7.9127   13.1994 S   0  0  0  0  0  0  0  0  0  0  0  0
   11.0603    6.7028   11.5606 S   0  0  0  0  0  0  0  0  0  0  0  0
   -9.6976   -4.9276   11.8136 O   0  0  0  0  0  0  0  0  0  0  0  0
    7.6787    1.5901    9.2438 O   0  0  0  0  0  0  0  0  0  0  0  0
   -4.7802   -6.2140    9.4641 O   0  0  0  0  0  0  0  0  0  0  0  0
   12.2373    3.7708   14.1701 O   0  0  0  0  0  0  0  0  0  0  0  0
   -8.4245   -2.8296   12.0266 O   0  0  0  0  0  0  0  0  0  0  0  0
   -9.2733   -3.6457    9.7770 O   0  0  0  0  0  0  0  0  0  0  0  0
    8.1838    1.6619   11.7070 O   0  0  0  0  0  0  0  0  0  0  0  0
    7.0620    3.5600   10.5445 O   0  0  0  0  0  0  0  0  0  0  0  0
   -4.2231   -7.6953   13.7484 O   0  0  0  0  0  0  0  0  0  0  0  0
   11.9887    6.3965   12.8504 O   0  0  0  0  0  0  0  0  0  0  0  0
   -2.4650   -5.3554    9.3211 O   0  0  0  0  0  0  0  0  0  0  0  0
   -3.1794   -6.8383   11.2529 O   0  0  0  0  0  0  0  0  0  0  0  0
   10.0642    3.5548   13.0738 O   0  0  0  0  0  0  0  0  0  0  0  0
   11.0946    1.6450   14.3320 O   0  0  0  0  0  0  0  0  0  0  0  0
   -6.5835   -8.1402   14.3470 O   0  0  0  0  0  0  0  0  0  0  0  0
   -5.6214   -8.8577   12.1130 O   0  0  0  0  0  0  0  0  0  0  0  0
   11.7592    7.6469   10.7243 O   0  0  0  0  0  0  0  0  0  0  0  0
    9.7509    6.9894   12.1140 O   0  0  0  0  0  0  0  0  0  0  0  0
   -6.1008   -4.5471    7.9375 O   0  0  0  0  0  0  0  0  0  0  0  0
    9.0081   -1.6117    8.6607 O   0  0  0  0  0  0  0  0  0  0  0  0
   -5.0469   -6.4228    5.0596 O   0  0  0  0  0  0  0  0  0  0  0  0
    4.3993   -3.7246    7.7547 O   0  0  0  0  0  0  0  0  0  0  0  0
    1.2290   -6.5556    8.2223 O   0  0  0  0  0  0  0  0  0  0  0  0
   -6.1972   -2.4210    8.8220 N   0  0  0  0  0  0  0  0  0  0  0  0
    9.4895   -0.1414   10.4198 N   0  0  0  0  0  0  0  0  0  0  0  0
   -3.5042   -4.7893    5.5942 N   0  0  0  0  0  0  0  0  0  0  0  0
    4.1396   -2.1589    9.4397 N   0  0  0  0  0  0  0  0  0  0  0  0
   -0.0809   -6.2543    6.3652 N   0  0  0  0  0  0  0  0  0  0  0  0
    1.5761   -4.7259    6.9968 N   0  0  0  0  0  0  0  0  0  0  0  0
   -6.0827   -3.9585   10.8818 C   0  0  0  0  0  0  0  0  0  0  0  0
   10.6561    2.1901   10.2042 C   0  0  0  0  0  0  0  0  0  0  0  0
   -5.1218   -4.3693   11.7846 C   0  0  0  0  0  0  0  0  0  0  0  0
   11.7721    2.8363   10.7423 C   0  0  0  0  0  0  0  0  0  0  0  0
   -7.1951   -4.8309   10.8597 C   0  0  0  0  0  0  0  0  0  0  0  0
    9.5954    3.1533   10.1679 C   0  0  0  0  0  0  0  0  0  0  0  0
   -3.8629   -4.2634   11.2427 C   0  0  0  0  0  0  0  0  0  0  0  0
   12.0965    2.1640   11.9078 C   0  0  0  0  0  0  0  0  0  0  0  0
   -5.7329   -2.7808   10.1206 C   0  0  0  0  0  0  0  0  0  0  0  0
   10.6897    0.6640   10.1061 C   0  0  0  0  0  0  0  0  0  0  0  0
   -5.3511   -5.2835   12.8091 C   0  0  0  0  0  0  0  0  0  0  0  0
   12.0109    4.2468   10.6828 C   0  0  0  0  0  0  0  0  0  0  0  0
   -6.1944   -6.3244   12.4992 C   0  0  0  0  0  0  0  0  0  0  0  0
   10.9517    5.1323   10.6705 C   0  0  0  0  0  0  0  0  0  0  0  0
   -7.1112   -6.1316   11.4606 C   0  0  0  0  0  0  0  0  0  0  0  0
    9.7185    4.5735   10.3994 C   0  0  0  0  0  0  0  0  0  0  0  0
   -3.5160   -3.0668   10.6012 C   0  0  0  0  0  0  0  0  0  0  0  0
   12.2141    0.7689   11.8464 C   0  0  0  0  0  0  0  0  0  0  0  0
   -4.5385   -2.1430   10.4508 C   0  0  0  0  0  0  0  0  0  0  0  0
   11.8214    0.1056   10.6838 C   0  0  0  0  0  0  0  0  0  0  0  0
   -6.1410   -3.3321    7.7612 C   0  0  0  0  0  0  0  0  0  0  0  0
    8.7468   -1.1801    9.7796 C   0  0  0  0  0  0  0  0  0  0  0  0
   -5.9496   -2.7346    6.3614 C   0  0  0  0  0  0  0  0  0  0  0  0
    7.4141   -1.6904   10.5282 C   0  0  0  0  0  0  0  0  0  0  0  0
   -5.6068   -3.6993    5.3836 C   0  0  0  0  0  0  0  0  0  0  0  0
    6.4923   -2.6359    9.9594 C   0  0  0  0  0  0  0  0  0  0  0  0
   -4.2608   -3.7351    4.9669 C   0  0  0  0  0  0  0  0  0  0  0  0
    5.1235   -2.6928   10.3794 C   0  0  0  0  0  0  0  0  0  0  0  0
   -5.1919   -1.5440    6.3306 C   0  0  0  0  0  0  0  0  0  0  0  0
    6.9211   -1.0148   11.6483 C   0  0  0  0  0  0  0  0  0  0  0  0
   -3.6842   -2.4702    4.8220 C   0  0  0  0  0  0  0  0  0  0  0  0
    4.9060   -2.3315   11.7101 C   0  0  0  0  0  0  0  0  0  0  0  0
   -3.8457   -1.6997    5.9712 C   0  0  0  0  0  0  0  0  0  0  0  0
    5.6006   -1.1911   12.0937 C   0  0  0  0  0  0  0  0  0  0  0  0
   -4.0201   -1.6902    3.5251 C   0  0  0  0  0  0  0  0  0  0  0  0
    5.0738   -3.4443   12.7893 C   0  0  0  0  0  0  0  0  0  0  0  0
   -4.0247   -6.0862    5.6594 C   0  0  0  0  0  0  0  0  0  0  0  0
    3.9055   -2.6732    8.1580 C   0  0  0  0  0  0  0  0  0  0  0  0
   -3.2515   -7.1735    6.3433 C   0  0  0  0  0  0  0  0  0  0  0  0
    2.9249   -1.9365    7.2217 C   0  0  0  0  0  0  0  0  0  0  0  0
   -2.1642   -6.9361    7.1851 C   0  0  0  0  0  0  0  0  0  0  0  0
    2.3724   -2.7142    6.1764 C   0  0  0  0  0  0  0  0  0  0  0  0
   -0.9112   -7.3516    6.7520 C   0  0  0  0  0  0  0  0  0  0  0  0
    1.2077   -3.4463    6.4983 C   0  0  0  0  0  0  0  0  0  0  0  0
   -3.2563   -8.3445    5.5968 C   0  0  0  0  0  0  0  0  0  0  0  0
    1.9798   -1.0941    7.7848 C   0  0  0  0  0  0  0  0  0  0  0  0
   -0.8718   -8.5298    6.0075 C   0  0  0  0  0  0  0  0  0  0  0  0
    0.2819   -2.7118    7.2707 C   0  0  0  0  0  0  0  0  0  0  0  0
   -2.0279   -8.9227    5.3184 C   0  0  0  0  0  0  0  0  0  0  0  0
    0.8328   -1.7895    8.2023 C   0  0  0  0  0  0  0  0  0  0  0  0
    0.8645   -5.8519    7.2810 C   0  0  0  0  0  0  0  0  0  0  0  0
   -4.6562   -5.3604   13.6418 H   0  0  0  0  0  0  0  0  0  0  0  0
   13.0004    4.6286   10.4115 H   0  0  0  0  0  0  0  0  0  0  0  0
   -7.6264   -6.9826   11.0140 H   0  0  0  0  0  0  0  0  0  0  0  0
    8.8295    5.1758   10.5639 H   0  0  0  0  0  0  0  0  0  0  0  0
   -2.7723   -3.1088    9.8004 H   0  0  0  0  0  0  0  0  0  0  0  0
   12.3219    0.1812   12.7569 H   0  0  0  0  0  0  0  0  0  0  0  0
   -4.6636   -1.5395   11.3753 H   0  0  0  0  0  0  0  0  0  0  0  0
   12.0407   -0.9529   10.5885 H   0  0  0  0  0  0  0  0  0  0  0  0
   -5.9193   -1.4814    8.5517 H   0  0  0  0  0  0  0  0  0  0  0  0
    9.1189    0.1400   11.3190 H   0  0  0  0  0  0  0  0  0  0  0  0
  -10.2453   -5.3456   11.1212 H   0  0  0  0  0  0  0  0  0  0  0  0
    7.9410    2.0637    8.4296 H   0  0  0  0  0  0  0  0  0  0  0  0
   -5.0988   -5.5477    8.7931 H   0  0  0  0  0  0  0  0  0  0  0  0
   12.0972    3.6394   15.1330 H   0  0  0  0  0  0  0  0  0  0  0  0
   -6.2963   -3.6975    4.5211 H   0  0  0  0  0  0  0  0  0  0  0  0
    6.9197   -3.6464    9.8339 H   0  0  0  0  0  0  0  0  0  0  0  0
   -3.5875   -7.9209   13.0252 H   0  0  0  0  0  0  0  0  0  0  0  0
   11.4092    6.2242   13.6255 H   0  0  0  0  0  0  0  0  0  0  0  0
   -5.6936   -0.7757    5.7055 H   0  0  0  0  0  0  0  0  0  0  0  0
    7.4959   -0.2955   12.2025 H   0  0  0  0  0  0  0  0  0  0  0  0
   -3.2545   -2.1107    6.8131 H   0  0  0  0  0  0  0  0  0  0  0  0
    5.0435   -0.2691   12.2819 H   0  0  0  0  0  0  0  0  0  0  0  0
   -2.5361   -4.6308    5.8552 H   0  0  0  0  0  0  0  0  0  0  0  0
    3.4649   -1.5011    9.8173 H   0  0  0  0  0  0  0  0  0  0  0  0
   -5.0981   -1.7045    3.3136 H   0  0  0  0  0  0  0  0  0  0  0  0
   -3.7341   -0.6350    3.6368 H   0  0  0  0  0  0  0  0  0  0  0  0
   -3.4834   -2.0891    2.6610 H   0  0  0  0  0  0  0  0  0  0  0  0
    4.4071   -3.2624   13.6416 H   0  0  0  0  0  0  0  0  0  0  0  0
    4.8704   -4.4464   12.3990 H   0  0  0  0  0  0  0  0  0  0  0  0
    6.1033   -3.4510   13.1811 H   0  0  0  0  0  0  0  0  0  0  0  0
   -2.3355   -7.4940    8.1426 H   0  0  0  0  0  0  0  0  0  0  0  0
    2.1698   -2.1115    5.2655 H   0  0  0  0  0  0  0  0  0  0  0  0
   -4.1217   -8.6052    4.9938 H   0  0  0  0  0  0  0  0  0  0  0  0
    1.7076   -0.2693    7.0882 H   0  0  0  0  0  0  0  0  0  0  0  0
   -0.4929   -9.3857    6.6131 H   0  0  0  0  0  0  0  0  0  0  0  0
   -0.4853   -2.2022    6.6525 H   0  0  0  0  0  0  0  0  0  0  0  0
   -1.9162   -9.3207    4.3079 H   0  0  0  0  0  0  0  0  0  0  0  0
    1.0416   -2.3101    9.1614 H   0  0  0  0  0  0  0  0  0  0  0  0
    0.3754   -6.3951    5.4702 H   0  0  0  0  0  0  0  0  0  0  0  0
    2.4551   -4.7261    7.5122 H   0  0  0  0  0  0  0  0  0  0  0  0
  1  7  1  0  0  0  0
  1 11  2  0  0  0  0
  1 12  2  0  0  0  0
  1 40  1  0  0  0  0
  2  8  1  0  0  0  0
  2 13  2  0  0  0  0
  2 14  2  0  0  0  0
  2 41  1  0  0  0  0
  3  9  1  0  0  0  0
  3 17  2  0  0  0  0
  3 18  2  0  0  0  0
  3 42  1  0  0  0  0
  4 10  1  0  0  0  0
  4 19  2  0  0  0  0
  4 20  2  0  0  0  0
  4 43  1  0  0  0  0
  5 15  1  0  0  0  0
  5 21  2  0  0  0  0
  5 22  2  0  0  0  0
  5 48  1  0  0  0  0
  6 16  1  0  0  0  0
  6 23  2  0  0  0  0
  6 24  2  0  0  0  0
  6 49  1  0  0  0  0
  7 97  1  0  0  0  0
  8 98  1  0  0  0  0
  9 99  1  0  0  0  0
 10100  1  0  0  0  0
 15103  1  0  0  0  0
 16104  1  0  0  0  0
 25 56  2  0  0  0  0
 26 57  2  0  0  0  0
 27 72  2  0  0  0  0
 28 73  2  0  0  0  0
 29 86  2  0  0  0  0
 30 44  1  0  0  0  0
 30 56  1  0  0  0  0
 30 95  1  0  0  0  0
 31 45  1  0  0  0  0
 31 57  1  0  0  0  0
 31 96  1  0  0  0  0
 32 62  1  0  0  0  0
 32 72  1  0  0  0  0
 32109  1  0  0  0  0
 33 63  1  0  0  0  0
 33 73  1  0  0  0  0
 33110  1  0  0  0  0
 34 78  1  0  0  0  0
 34 86  1  0  0  0  0
 34125  1  0  0  0  0
 35 79  1  0  0  0  0
 35 86  1  0  0  0  0
 35126  1  0  0  0  0
 36 38  1  0  0  0  0
 36 40  1  0  0  0  0
 36 44  2  0  0  0  0
 37 39  1  0  0  0  0
 37 41  1  0  0  0  0
 37 45  2  0  0  0  0
 38 42  2  0  0  0  0
 38 46  1  0  0  0  0
 39 43  2  0  0  0  0
 39 47  1  0  0  0  0
 40 50  2  0  0  0  0
 41 51  2  0  0  0  0
 42 52  1  0  0  0  0
 43 53  1  0  0  0  0
 44 54  1  0  0  0  0
 45 55  1  0  0  0  0
 46 48  2  0  0  0  0
 46 87  1  0  0  0  0
 47 49  2  0  0  0  0
 47 88  1  0  0  0  0
 48 50  1  0  0  0  0
 49 51  1  0  0  0  0
 50 89  1  0  0  0  0
 51 90  1  0  0  0  0
 52 54  2  0  0  0  0
 52 91  1  0  0  0  0
 53 55  2  0  0  0  0
 53 92  1  0  0  0  0
 54 93  1  0  0  0  0
 55 94  1  0  0  0  0
 56 58  1  0  0  0  0
 57 59  1  0  0  0  0
 58 60  2  0  0  0  0
 58 64  1  0  0  0  0
 59 61  2  0  0  0  0
 59 65  1  0  0  0  0
 60 62  1  0  0  0  0
 60101  1  0  0  0  0
 61 63  1  0  0  0  0
 61102  1  0  0  0  0
 62 66  2  0  0  0  0
 63 67  2  0  0  0  0
 64 68  2  0  0  0  0
 64105  1  0  0  0  0
 65 69  2  0  0  0  0
 65106  1  0  0  0  0
 66 68  1  0  0  0  0
 66 70  1  0  0  0  0
 67 69  1  0  0  0  0
 67 71  1  0  0  0  0
 68107  1  0  0  0  0
 69108  1  0  0  0  0
 70111  1  0  0  0  0
 70112  1  0  0  0  0
 70113  1  0  0  0  0
 71114  1  0  0  0  0
 71115  1  0  0  0  0
 71116  1  0  0  0  0
 72 74  1  0  0  0  0
 73 75  1  0  0  0  0
 74 76  2  0  0  0  0
 74 80  1  0  0  0  0
 75 77  2  0  0  0  0
 75 81  1  0  0  0  0
 76 78  1  0  0  0  0
 76117  1  0  0  0  0
 77 79  1  0  0  0  0
 77118  1  0  0  0  0
 78 82  2  0  0  0  0
 79 83  2  0  0  0  0
 80 84  2  0  0  0  0
 80119  1  0  0  0  0
 81 85  2  0  0  0  0
 81120  1  0  0  0  0
 82 84  1  0  0  0  0
 82121  1  0  0  0  0
 83 85  1  0  0  0  0
 83122  1  0  0  0  0
 84123  1  0  0  0  0
 85124  1  0  0  0  0
M  END
>  <PUBCHEM_COMPOUND_CID>
5361

>  <PUBCHEM_COMPOUND_CANONICALIZED>
1

>  <PUBCHEM_CACTVS_COMPLEXITY>
3020

>  <PUBCHEM_CACTVS_HBOND_ACCEPTOR>
23

>  <PUBCHEM_CACTVS_HBOND_DONOR>
12

>  <PUBCHEM_CACTVS_ROTATABLE_BOND>
16

>  <PUBCHEM_CACTVS_SUBSKEYS>
AAADcfB/vgBwAAAAAAAAAAAAAAAAAAAAAAAwYMGDAAAAAADBVAAAHgQQCAAADAiB2AAzwcLAAIKIAiVSUHDCAEAlAgAIiBkAZMiIIDLAlZGEIQxolALIyacciICO0AQAwEAWAACgCAGAgCwAAAAAAAAAAA==

>  <PUBCHEM_IUPAC_OPENEYE_NAME>
8-[[4-methyl-3-[[3-[[3-[[2-methyl-5-[(4,6,8-trisulfo-1-naphthyl)carbamoyl]phenyl]carbamoyl]phenyl]carbamoylamino]benzoyl]amino]benzoyl]amino]naphthalene-1,3,5-trisulfonic acid

>  <PUBCHEM_IUPAC_CAS_NAME>
8-[[[4-methyl-3-[[[3-[[[3-[[2-methyl-5-[oxo-[(4,6,8-trisulfo-1-naphthalenyl)amino]methyl]anilino]-oxomethyl]anilino]-oxomethyl]amino]phenyl]-oxomethyl]amino]phenyl]-oxomethyl]amino]naphthalene-1,3,5-trisulfonic acid

>  <PUBCHEM_IUPAC_NAME_MARKUP>
8-[[4-methyl-3-[[3-[[3-[[2-methyl-5-[(4,6,8-trisulfonaphthalen-1-yl)carbamoyl]phenyl]carbamoyl]phenyl]carbamoylamino]benzoyl]amino]benzoyl]amino]naphthalene-1,3,5-trisulfonic acid

>  <PUBCHEM_IUPAC_NAME>
8-[[4-methyl-3-[[3-[[3-[[2-methyl-5-[(4,6,8-trisulfonaphthalen-1-yl)carbamoyl]phenyl]carbamoyl]phenyl]carbamoylamino]benzoyl]amino]benzoyl]amino]naphthalene-1,3,5-trisulfonic acid

>  <PUBCHEM_IUPAC_SYSTEMATIC_NAME>
8-[[4-methyl-3-[[3-[[3-[[2-methyl-5-[(4,6,8-trisulfonaphthalen-1-yl)carbamoyl]phenyl]carbamoyl]phenyl]carbamoylamino]phenyl]carbonylamino]phenyl]carbonylamino]naphthalene-1,3,5-trisulfonic acid

>  <PUBCHEM_IUPAC_TRADITIONAL_NAME>
8-[[4-methyl-3-[[3-[[3-[[2-methyl-5-[(4,6,8-trisulfo-1-naphthyl)carbamoyl]phenyl]carbamoyl]phenyl]carbamoylamino]benzoyl]amino]benzoyl]amino]naphthalene-1,3,5-trisulfonic acid

>  <PUBCHEM_IUPAC_INCHI>
InChI=1S/C51H40N6O23S6/c1-25-9-11-29(49(60)54-37-13-15-41(83(69,70)71)35-21-33(81(63,64)65)23-43(45(35)37)85(75,76)77)19-39(25)56-47(58)27-5-3-7-31(17-27)52-51(62)53-32-8-4-6-28(18-32)48(59)57-40-20-30(12-10-26(40)2)50(61)55-38-14-16-42(84(72,73)74)36-22-34(82(66,67)68)24-44(46(36)38)86(78,79)80/h3-24H,1-2H3,(H,54,60)(H,55,61)(H,56,58)(H,57,59)(H2,52,53,62)(H,63,64,65)(H,66,67,68)(H,69,70,71)(H,72,73,74)(H,75,76,77)(H,78,79,80)

>  <PUBCHEM_IUPAC_INCHIKEY>
FIAFUQMPZJWCLV-UHFFFAOYSA-N

>  <PUBCHEM_XLOGP3_AA>
1.5

>  <PUBCHEM_EXACT_MASS>
1296.046909

>  <PUBCHEM_MOLECULAR_FORMULA>
C51H40N6O23S6

>  <PUBCHEM_MOLECULAR_WEIGHT>
1297.3

>  <PUBCHEM_OPENEYE_CAN_SMILES>
CC1=C(C=C(C=C1)C(=O)NC2=C3C(=CC(=CC3=C(C=C2)S(=O)(=O)O)S(=O)(=O)O)S(=O)(=O)O)NC(=O)C4=CC(=CC=C4)NC(=O)NC5=CC=CC(=C5)C(=O)NC6=C(C=CC(=C6)C(=O)NC7=C8C(=CC(=CC8=C(C=C7)S(=O)(=O)O)S(=O)(=O)O)S(=O)(=O)O)C

>  <PUBCHEM_OPENEYE_ISO_SMILES>
CC1=C(C=C(C=C1)C(=O)NC2=C3C(=CC(=CC3=C(C=C2)S(=O)(=O)O)S(=O)(=O)O)S(=O)(=O)O)NC(=O)C4=CC(=CC=C4)NC(=O)NC5=CC=CC(=C5)C(=O)NC6=C(C=CC(=C6)C(=O)NC7=C8C(=CC(=CC8=C(C=C7)S(=O)(=O)O)S(=O)(=O)O)S(=O)(=O)O)C

>  <PUBCHEM_CACTVS_TPSA>
534

>  <PUBCHEM_MONOISOTOPIC_WEIGHT>
1296.046909

>  <PUBCHEM_TOTAL_CHARGE>
0

>  <PUBCHEM_HEAVY_ATOM_COUNT>
86

>  <PUBCHEM_ATOM_DEF_STEREO_COUNT>
0

>  <PUBCHEM_ATOM_UDEF_STEREO_COUNT>
0

>  <PUBCHEM_BOND_DEF_STEREO_COUNT>
0

>  <PUBCHEM_BOND_UDEF_STEREO_COUNT>
0

>  <PUBCHEM_ISOTOPIC_ATOM_COUNT>
0

>  <PUBCHEM_COMPONENT_COUNT>
1

>  <PUBCHEM_CACTVS_TAUTO_COUNT>
-1

>  <PUBCHEM_COORDINATE_TYPE>
1
5
255

>  <PUBCHEM_BONDANNOTATIONS>
36  38  8
36  40  8
36  44  8
37  39  8
37  41  8
37  45  8
38  42  8
38  46  8
39  43  8
39  47  8
40  50  8
41  51  8
42  52  8
43  53  8
44  54  8
45  55  8
46  48  8
47  49  8
48  50  8
49  51  8
52  54  8
53  55  8
58  60  8
58  64  8
59  61  8
59  65  8
60  62  8
61  63  8
62  66  8
63  67  8
64  68  8
65  69  8
66  68  8
67  69  8
74  76  8
74  80  8
75  77  8
75  81  8
76  78  8
77  79  8
78  82  8
79  83  8
80  84  8
81  85  8
82  84  8
83  85  8

$$$$
