9916461
  -OEChem-05142003503D

 57 61  0     0  0  0  0  0  0999 V2000
    3.1511    4.0738   -0.7003 Cl  0  0  0  0  0  0  0  0  0  0  0  0
   -2.1877    2.8853   -2.5689 F   0  0  0  0  0  0  0  0  0  0  0  0
   -4.2497    3.2961   -2.0366 F   0  0  0  0  0  0  0  0  0  0  0  0
   -2.6657    3.6441   -0.5879 F   0  0  0  0  0  0  0  0  0  0  0  0
   -5.2319   -1.7952    1.9754 F   0  0  0  0  0  0  0  0  0  0  0  0
   -4.9180    0.2038    2.7561 F   0  0  0  0  0  0  0  0  0  0  0  0
   -6.4908   -0.1564    1.2982 F   0  0  0  0  0  0  0  0  0  0  0  0
    1.6719    1.3283   -1.0591 O   0  0  0  0  0  0  0  0  0  0  0  0
   -0.4402   -1.6745   -1.8979 N   0  0  0  0  0  0  0  0  0  0  0  0
   -0.0548   -1.0987   -3.0481 N   0  0  0  0  0  0  0  0  0  0  0  0
    1.2459   -0.8482   -2.9473 N   0  0  0  0  0  0  0  0  0  0  0  0
    3.7873   -2.2408   -1.5363 N   0  0  0  0  0  0  0  0  0  0  0  0
    0.2728   -3.5239    2.8303 N   0  0  0  0  0  0  0  0  0  0  0  0
   -1.8177   -2.0623   -1.7148 C   0  0  0  0  0  0  0  0  0  0  0  0
    0.6002   -1.8093   -1.0310 C   0  0  0  0  0  0  0  0  0  0  0  0
   -2.6261   -0.9474   -1.1081 C   0  0  0  0  0  0  0  0  0  0  0  0
    1.6546   -1.2779   -1.7206 C   0  0  0  0  0  0  0  0  0  0  0  0
   -3.5043   -1.2259   -0.0697 C   0  0  0  0  0  0  0  0  0  0  0  0
   -2.4831    0.3447   -1.5950 C   0  0  0  0  0  0  0  0  0  0  0  0
    0.4910   -2.3929    0.2834 C   0  0  0  0  0  0  0  0  0  0  0  0
   -4.2539   -0.1926    0.4928 C   0  0  0  0  0  0  0  0  0  0  0  0
   -3.2327    1.3781   -1.0327 C   0  0  0  0  0  0  0  0  0  0  0  0
    3.0088   -1.1736   -1.2488 C   0  0  0  0  0  0  0  0  0  0  0  0
   -4.1181    1.1095    0.0111 C   0  0  0  0  0  0  0  0  0  0  0  0
    3.4700   -0.0835   -0.5653 C   0  0  0  0  0  0  0  0  0  0  0  0
   -3.0877    2.7704   -1.5479 C   0  0  0  0  0  0  0  0  0  0  0  0
   -5.2015   -0.4799    1.6082 C   0  0  0  0  0  0  0  0  0  0  0  0
    0.1934   -1.5914    1.3799 C   0  0  0  0  0  0  0  0  0  0  0  0
    0.6796   -3.7593    0.4588 C   0  0  0  0  0  0  0  0  0  0  0  0
    2.5869    1.0805   -0.2626 C   0  0  0  0  0  0  0  0  0  0  0  0
    4.7734   -0.0322   -0.1352 C   0  0  0  0  0  0  0  0  0  0  0  0
    2.7721    1.9119    0.9207 C   0  0  0  0  0  0  0  0  0  0  0  0
    5.6053   -1.1115   -0.4120 C   0  0  0  0  0  0  0  0  0  0  0  0
    5.0686   -2.1818   -1.1091 C   0  0  0  0  0  0  0  0  0  0  0  0
    0.0962   -2.2001    2.6208 C   0  0  0  0  0  0  0  0  0  0  0  0
    0.5606   -4.2711    1.7409 C   0  0  0  0  0  0  0  0  0  0  0  0
    3.0311    3.2795    0.8287 C   0  0  0  0  0  0  0  0  0  0  0  0
    2.6821    1.3018    2.1718 C   0  0  0  0  0  0  0  0  0  0  0  0
    3.1999    4.0368    1.9879 C   0  0  0  0  0  0  0  0  0  0  0  0
    2.8510    2.0592    3.3310 C   0  0  0  0  0  0  0  0  0  0  0  0
    3.1100    3.4266    3.2390 C   0  0  0  0  0  0  0  0  0  0  0  0
   -2.2323   -2.3294   -2.6943 H   0  0  0  0  0  0  0  0  0  0  0  0
   -1.8398   -2.9666   -1.0974 H   0  0  0  0  0  0  0  0  0  0  0  0
   -3.6050   -2.2428    0.2999 H   0  0  0  0  0  0  0  0  0  0  0  0
   -1.8213    0.5703   -2.4233 H   0  0  0  0  0  0  0  0  0  0  0  0
   -4.7024    1.9152    0.4494 H   0  0  0  0  0  0  0  0  0  0  0  0
    0.0339   -0.5224    1.2819 H   0  0  0  0  0  0  0  0  0  0  0  0
    0.9125   -4.4170   -0.3725 H   0  0  0  0  0  0  0  0  0  0  0  0
    5.1865    0.8190    0.3962 H   0  0  0  0  0  0  0  0  0  0  0  0
    6.6420   -1.1134   -0.0955 H   0  0  0  0  0  0  0  0  0  0  0  0
    5.6760   -3.0477   -1.3510 H   0  0  0  0  0  0  0  0  0  0  0  0
   -0.1353   -1.6190    3.5073 H   0  0  0  0  0  0  0  0  0  0  0  0
    0.6982   -5.3304    1.9310 H   0  0  0  0  0  0  0  0  0  0  0  0
    2.4826    0.2379    2.2652 H   0  0  0  0  0  0  0  0  0  0  0  0
    3.4023    5.1035    1.9338 H   0  0  0  0  0  0  0  0  0  0  0  0
    2.7812    1.5840    4.3050 H   0  0  0  0  0  0  0  0  0  0  0  0
    3.2415    4.0161    4.1417 H   0  0  0  0  0  0  0  0  0  0  0  0
  1 37  1  0  0  0  0
  2 26  1  0  0  0  0
  3 26  1  0  0  0  0
  4 26  1  0  0  0  0
  5 27  1  0  0  0  0
  6 27  1  0  0  0  0
  7 27  1  0  0  0  0
  8 30  2  0  0  0  0
  9 10  1  0  0  0  0
  9 14  1  0  0  0  0
  9 15  1  0  0  0  0
 10 11  2  0  0  0  0
 11 17  1  0  0  0  0
 12 23  1  0  0  0  0
 12 34  2  0  0  0  0
 13 35  2  0  0  0  0
 13 36  1  0  0  0  0
 14 16  1  0  0  0  0
 14 42  1  0  0  0  0
 14 43  1  0  0  0  0
 15 17  2  0  0  0  0
 15 20  1  0  0  0  0
 16 18  2  0  0  0  0
 16 19  1  0  0  0  0
 17 23  1  0  0  0  0
 18 21  1  0  0  0  0
 18 44  1  0  0  0  0
 19 22  2  0  0  0  0
 19 45  1  0  0  0  0
 20 28  2  0  0  0  0
 20 29  1  0  0  0  0
 21 24  2  0  0  0  0
 21 27  1  0  0  0  0
 22 24  1  0  0  0  0
 22 26  1  0  0  0  0
 23 25  2  0  0  0  0
 24 46  1  0  0  0  0
 25 30  1  0  0  0  0
 25 31  1  0  0  0  0
 28 35  1  0  0  0  0
 28 47  1  0  0  0  0
 29 36  2  0  0  0  0
 29 48  1  0  0  0  0
 30 32  1  0  0  0  0
 31 33  2  0  0  0  0
 31 49  1  0  0  0  0
 32 37  1  0  0  0  0
 32 38  2  0  0  0  0
 33 34  1  0  0  0  0
 33 50  1  0  0  0  0
 34 51  1  0  0  0  0
 35 52  1  0  0  0  0
 36 53  1  0  0  0  0
 37 39  2  0  0  0  0
 38 40  1  0  0  0  0
 38 54  1  0  0  0  0
 39 41  1  0  0  0  0
 39 55  1  0  0  0  0
 40 41  2  0  0  0  0
 40 56  1  0  0  0  0
 41 57  1  0  0  0  0
M  END
> <PUBCHEM_COMPOUND_CID>
9916461

> <PUBCHEM_CONFORMER_RMSD>
1

> <PUBCHEM_CONFORMER_DIVERSEORDER>
1
55
8
173
85
117
101
184
45
114
178
22
197
63
165
131
21
123
90
188
14
112
198
166
134
145
182
109
180
138
68
151
192
122
172
186
110
176
156
163
155
83
174
132
191
125
196
193
20
113
49
171
99
100
148
144
127
142
128
189
46
199
115
190
120
64
5
116
200
137
65
149
118
84
129
187
111
52
91
133
82
162
2
102
94
89
105
81
32
179
147
139
98
93
152
136
19
181
106
177
59
185
126
66
130
158
67
146
153
35
92
69
183
135
170
154
124
3
60
121
97
39
7
33
62
194
119
11
104
157
4
27
56
143
28
164
161
103
9
70
15
169
34
140
25
175
61
80
37
6
77
36
108
107
72
51
71
43
79
78
44
195
159
10
16
168
141
167
160
150
50
95
88
53
96
26
12
87
24
54
31
57
23
86
29
58
30
74
73
13
47
76
75
48
38
40
17
18
41
42

> <PUBCHEM_MMFF94_PARTIAL_CHARGES>
55
1 -0.18
10 -0.42
11 -0.23
12 -0.62
13 -0.62
14 0.4
15 -0.2
16 -0.14
17 0.17
18 -0.15
19 -0.15
2 -0.34
20 0.05
21 -0.14
22 -0.14
23 0.36
24 -0.15
25 0.09
26 1.16
27 1.16
28 -0.15
29 -0.15
3 -0.34
30 0.4
31 -0.15
32 0.09
33 -0.15
34 0.16
35 0.16
36 0.16
37 0.18
38 -0.15
39 -0.15
4 -0.34
40 -0.15
41 -0.15
44 0.15
45 0.15
46 0.15
47 0.15
48 0.15
49 0.15
5 -0.34
50 0.15
51 0.15
52 0.15
53 0.15
54 0.15
55 0.15
56 0.15
57 0.15
6 -0.34
7 -0.34
8 -0.57
9 0.31

> <PUBCHEM_EFFECTIVE_ROTOR_COUNT>
8

> <PUBCHEM_PHARMACOPHORE_FEATURES>
8
1 12 acceptor
1 13 acceptor
1 8 acceptor
5 9 10 11 15 17 rings
6 12 23 25 31 33 34 rings
6 13 20 28 29 35 36 rings
6 16 18 19 21 22 24 rings
6 32 37 38 39 40 41 rings

> <PUBCHEM_HEAVY_ATOM_COUNT>
41

> <PUBCHEM_ATOM_DEF_STEREO_COUNT>
0

> <PUBCHEM_ATOM_UDEF_STEREO_COUNT>
0

> <PUBCHEM_BOND_DEF_STEREO_COUNT>
0

> <PUBCHEM_BOND_UDEF_STEREO_COUNT>
0

> <PUBCHEM_ISOTOPIC_ATOM_COUNT>
0

> <PUBCHEM_COMPONENT_COUNT>
1

> <PUBCHEM_CACTVS_TAUTO_COUNT>
1

> <PUBCHEM_CONFORMER_ID>
0097502D00000001

> <PUBCHEM_MMFF94_ENERGY>
110.171

> <PUBCHEM_FEATURE_SELFOVERLAP>
40.6

> <PUBCHEM_SHAPE_FINGERPRINT>
10032420 55 18190197701528792427
10439779 11 17910369720138314837
10842077 115 18122308407575544893
13583140 156 18263362495629243095
14020679 6 18337665421513478330
14468879 13 17768235075037749882
150020 26 18341895173467198676
15219462 58 18042385968741231567
35225 105 17241876790904839306
392239 28 18114481019173363571
5252454 2 17916024761985475348
6086070 43 18054481674029658687

> <PUBCHEM_SHAPE_MULTIPOLES>
771.21
10.7
5.51
3.38
8.14
2.41
-1.39
4.28
-2.41
-3.86
-1.5
0.53
0.18
4.16

> <PUBCHEM_SHAPE_SELFOVERLAP>
1716.28

> <PUBCHEM_SHAPE_VOLUME>
413.9

> <PUBCHEM_COORDINATE_TYPE>
2
5
10

$$$$
